(PID.TID 0000.0001) 
(PID.TID 0000.0001) // ======================================================
(PID.TID 0000.0001) //                      MITgcm UV
(PID.TID 0000.0001) //                      =========
(PID.TID 0000.0001) // ======================================================
(PID.TID 0000.0001) // execution environment starting up...
(PID.TID 0000.0001) 
(PID.TID 0000.0001) // MITgcmUV version:  checkpoint68m
(PID.TID 0000.0001) // Build user:        atnguyen
(PID.TID 0000.0001) // Build host:        nansen
(PID.TID 0000.0001) // Build date:        Fri Jan 13 03:07:41 AM CST 2023
(PID.TID 0000.0001) 
(PID.TID 0000.0001) // =======================================================
(PID.TID 0000.0001) // Execution Environment parameter file "eedata"
(PID.TID 0000.0001) // =======================================================
(PID.TID 0000.0001) ># Example "eedata" file
(PID.TID 0000.0001) ># Lines beginning "#" are comments
(PID.TID 0000.0001) ># nTx - No. threads per process in X
(PID.TID 0000.0001) ># nTy - No. threads per process in Y
(PID.TID 0000.0001) > &EEPARMS
(PID.TID 0000.0001) > nTx=1,
(PID.TID 0000.0001) > nTy=1,
(PID.TID 0000.0001) > /
(PID.TID 0000.0001) ># Note: Some systems use & as the
(PID.TID 0000.0001) ># namelist terminator. Other systems
(PID.TID 0000.0001) ># use a / character (as shown here).
(PID.TID 0000.0001) 
(PID.TID 0000.0001) // =======================================================
(PID.TID 0000.0001) // Computational Grid Specification ( see files "SIZE.h" )
(PID.TID 0000.0001) //                                  ( and "eedata"       )
(PID.TID 0000.0001) // =======================================================
(PID.TID 0000.0001)      nPx =    1 ; /* No. processes in X */
(PID.TID 0000.0001)      nPy =    1 ; /* No. processes in Y */
(PID.TID 0000.0001)      nSx =    1 ; /* No. tiles in X per process */
(PID.TID 0000.0001)      nSy =    1 ; /* No. tiles in Y per process */
(PID.TID 0000.0001)      sNx =   20 ; /* Tile size in X */
(PID.TID 0000.0001)      sNy =   16 ; /* Tile size in Y */
(PID.TID 0000.0001)      OLx =    4 ; /* Tile overlap distance in X */
(PID.TID 0000.0001)      OLy =    4 ; /* Tile overlap distance in Y */
(PID.TID 0000.0001)      nTx =    1 ; /* No. threads in X per process */
(PID.TID 0000.0001)      nTy =    1 ; /* No. threads in Y per process */
(PID.TID 0000.0001)       Nr =   23 ; /* No. levels in the vertical   */
(PID.TID 0000.0001)       Nx =   20 ; /* Total domain size in X ( = nPx*nSx*sNx ) */
(PID.TID 0000.0001)       Ny =   16 ; /* Total domain size in Y ( = nPy*nSy*sNy ) */
(PID.TID 0000.0001)   nTiles =    1 ; /* Total no. tiles per process ( = nSx*nSy ) */
(PID.TID 0000.0001)   nProcs =    1 ; /* Total no. processes ( = nPx*nPy ) */
(PID.TID 0000.0001) nThreads =    1 ; /* Total no. threads per process ( = nTx*nTy ) */
(PID.TID 0000.0001) usingMPI =    F ; /* Flag used to control whether MPI is in use */
(PID.TID 0000.0001)                   /*  note: To execute a program with MPI calls */
(PID.TID 0000.0001)                   /*  it must be launched appropriately e.g     */
(PID.TID 0000.0001)                   /*  "mpirun -np 64 ......"                    */
(PID.TID 0000.0001) useCoupler=   F ; /* Flag used to control communications with   */
(PID.TID 0000.0001)                   /*  other model components, through a coupler */
(PID.TID 0000.0001) useNest2W_parent =    F ;/* Control 2-W Nesting comm */
(PID.TID 0000.0001) useNest2W_child  =    F ;/* Control 2-W Nesting comm */
(PID.TID 0000.0001) debugMode =    F ; /* print debug msg. (sequence of S/R calls)  */
(PID.TID 0000.0001) printMapIncludesZeros=    F ; /* print zeros in Std.Output maps */
(PID.TID 0000.0001) maxLengthPrt1D=   65 /* maxLength of 1D array printed to StdOut */
(PID.TID 0000.0001) 
(PID.TID 0000.0001) // ======================================================
(PID.TID 0000.0001) // Mapping of tiles to threads
(PID.TID 0000.0001) // ======================================================
(PID.TID 0000.0001) // -o- Thread   1, tiles (   1:   1,   1:   1)
(PID.TID 0000.0001) 
(PID.TID 0000.0001) // ======================================================
(PID.TID 0000.0001) // Tile <-> Tile connectvity table
(PID.TID 0000.0001) // ======================================================
(PID.TID 0000.0001) // Tile number: 000001 (process no. = 000000)
(PID.TID 0000.0001) //        WEST: Tile = 000001, Process = 000000, Comm = put
(PID.TID 0000.0001) //                bi = 000001, bj = 000001
(PID.TID 0000.0001) //        EAST: Tile = 000001, Process = 000000, Comm = put
(PID.TID 0000.0001) //                bi = 000001, bj = 000001
(PID.TID 0000.0001) //       SOUTH: Tile = 000001, Process = 000000, Comm = put
(PID.TID 0000.0001) //                bi = 000001, bj = 000001
(PID.TID 0000.0001) //       NORTH: Tile = 000001, Process = 000000, Comm = put
(PID.TID 0000.0001) //                bi = 000001, bj = 000001
(PID.TID 0000.0001) 
(PID.TID 0000.0001)  INI_PARMS: opening model parameter file "data"
(PID.TID 0000.0001)  OPEN_COPY_DATA_FILE: opening file data
(PID.TID 0000.0001) // =======================================================
(PID.TID 0000.0001) // Parameter file "data"
(PID.TID 0000.0001) // =======================================================
(PID.TID 0000.0001) ># ====================
(PID.TID 0000.0001) ># | Model parameters |
(PID.TID 0000.0001) ># ====================
(PID.TID 0000.0001) >#
(PID.TID 0000.0001) ># Continuous equation parameters
(PID.TID 0000.0001) >#
(PID.TID 0000.0001) >#   tRef            - Reference vertical potential temperature          (deg C)
(PID.TID 0000.0001) >#   sRef            - Reference vertical salinity                         (PSU)
(PID.TID 0000.0001) >#   viscAh          - Horizontal eddy viscosity coefficient             (m^2/s)
(PID.TID 0000.0001) >#   viscAz          - Vertical eddy viscosity coefficient               (m^2/s)
(PID.TID 0000.0001) >#   diffKhT         - Horizontal temperature diffusivity                (m^2/s)
(PID.TID 0000.0001) >#   diffKzT         - Vertical temperature diffusivity                  (m^2/s)
(PID.TID 0000.0001) >#   diffKhS         - Horizontal salt diffusivity                       (m^2/s)
(PID.TID 0000.0001) >#   diffKzS         - Vertical salt diffusivity                         (m^2/s)
(PID.TID 0000.0001) >#   gravity         - Acceleration due to gravity                       (m/s^2)
(PID.TID 0000.0001) >#   rigidLid        - Set to true to use rigid lid
(PID.TID 0000.0001) >#   implicitFreeSurface - Set to true to use implicit free surface
(PID.TID 0000.0001) >#   eosType         - Flag for linear or polynomial equation of state
(PID.TID 0000.0001) >#   momAdvection    - On/Off flag for momentum self transport
(PID.TID 0000.0001) >#   momViscosity    - On/Off flag for momentum mixing
(PID.TID 0000.0001) >#
(PID.TID 0000.0001) > &PARM01
(PID.TID 0000.0001) > tRef= 24.0 , 23.0 , 22.0 , 21.0 , 20.0 ,
(PID.TID 0000.0001) >       19.0 , 18.0 , 17.0 , 16.0 , 15.0 ,
(PID.TID 0000.0001) >       14.0 , 13.0 , 12.0 , 11.0 , 10.0 ,
(PID.TID 0000.0001) >        9.0 ,  8.0 ,  7.0 ,  6.0,   5.0 ,
(PID.TID 0000.0001) >        4.0 ,  3.0 ,  2.0 ,
(PID.TID 0000.0001) > sRef= 34.65, 34.75, 34.82, 34.87, 34.90,
(PID.TID 0000.0001) >       34.90, 34.86, 34.78, 34.69, 34.60,
(PID.TID 0000.0001) >       34.58, 34.62, 34.68, 34.72, 34.73,
(PID.TID 0000.0001) >       34.74, 34.73, 34.73, 34.72, 34.72,
(PID.TID 0000.0001) >       34.71, 34.70, 34.69,
(PID.TID 0000.0001) > no_slip_sides=.FALSE.,
(PID.TID 0000.0001) > no_slip_bottom=.TRUE.,
(PID.TID 0000.0001) > viscAz=1.93e-5,
(PID.TID 0000.0001) > viscAh=5.E4,
(PID.TID 0000.0001) > diffKhT=0.0,
(PID.TID 0000.0001) > diffKzT=1.46e-5,
(PID.TID 0000.0001) > diffKhS=0.0,
(PID.TID 0000.0001) > diffKzS=1.46e-5,
(PID.TID 0000.0001) > implicitFreeSurface=.TRUE.,
(PID.TID 0000.0001) > eosType='JMD95Z',
(PID.TID 0000.0001) > saltStepping=.TRUE.,
(PID.TID 0000.0001) > tempStepping=.TRUE.,
(PID.TID 0000.0001) > momStepping=.TRUE.,
(PID.TID 0000.0001) > implicitDiffusion=.TRUE.,
(PID.TID 0000.0001) > implicitViscosity=.TRUE.,
(PID.TID 0000.0001) > allowFreezing=.FALSE.,
(PID.TID 0000.0001) >#- set wrong celsius2K to reproduce old results:
(PID.TID 0000.0001) > celsius2K=273.16,
(PID.TID 0000.0001) > HeatCapacity_Cp = 3986.D0,
(PID.TID 0000.0001) > gravity         = 9.8156,
(PID.TID 0000.0001) > rhoConst        = 1027.D0,
(PID.TID 0000.0001) > rhoConstFresh   = 999.8,
(PID.TID 0000.0001) > useCDscheme=.TRUE.,
(PID.TID 0000.0001) >#ph(
(PID.TID 0000.0001) > staggerTimeStep=.TRUE.,
(PID.TID 0000.0001) > multiDimAdvection=.TRUE.,
(PID.TID 0000.0001) > tempAdvScheme=30,
(PID.TID 0000.0001) > saltAdvScheme=30,
(PID.TID 0000.0001) >#ph)
(PID.TID 0000.0001) >#globalFiles=.TRUE.,
(PID.TID 0000.0001) >#- not safe to use globalFiles in multi-processors runs; set instead useSingleCpuIO
(PID.TID 0000.0001) > useSingleCpuIO=.true.,
(PID.TID 0000.0001) > readBinaryPrec=32,
(PID.TID 0000.0001) > writeBinaryPrec=32,
(PID.TID 0000.0001) > debugLevel=4,
(PID.TID 0000.0001) > /
(PID.TID 0000.0001) >
(PID.TID 0000.0001) ># Elliptic solver parameters
(PID.TID 0000.0001) >#
(PID.TID 0000.0001) >#   cg2dMaxIters       - Maximum number of 2d solver iterations
(PID.TID 0000.0001) >#   cg2dTargetResidual - Solver target residual
(PID.TID 0000.0001) >#
(PID.TID 0000.0001) > &PARM02
(PID.TID 0000.0001) > cg2dMaxIters=1000,
(PID.TID 0000.0001) > cg2dTargetResidual=1.E-13,
(PID.TID 0000.0001) > /
(PID.TID 0000.0001) >
(PID.TID 0000.0001) ># Time stepping parameters
(PID.TID 0000.0001) >#
(PID.TID 0000.0001) >#   startTime         - Integration starting time                (s)
(PID.TID 0000.0001) >#   endTime           - Integration ending time                  (s)
(PID.TID 0000.0001) >#   tauCD             - CD scheme coupling timescale             (s)
(PID.TID 0000.0001) >#   deltaTMom         - Timestep for momemtum equations          (s)
(PID.TID 0000.0001) >#   deltaTtracer      - Tracer timestep                          (s)
(PID.TID 0000.0001) >#   deltaTClock       - Timestep used as model "clock"           (s)
(PID.TID 0000.0001) >#   abEps             - Adams-Bashforth stabilising factor
(PID.TID 0000.0001) >#   pChkPtFreq        - Frequency of permanent check pointing    (s)
(PID.TID 0000.0001) >#   chkPtFreq         - Frequency of rolling check pointing      (s)
(PID.TID 0000.0001) >#   dumpFreq          - Frequency at which model state is stored (s)
(PID.TID 0000.0001) >#   tauThetaClimRelax - Relaxation to climatology time scale     (s)
(PID.TID 0000.0001) >#   tauSaltClimRelax  - Relaxation to climatology time scale     (s)
(PID.TID 0000.0001) >#
(PID.TID 0000.0001) > &PARM03
(PID.TID 0000.0001) > tauCD=172800.,
(PID.TID 0000.0001) > niter0=0,
(PID.TID 0000.0001) > nTimeSteps=9,
(PID.TID 0000.0001) > deltaTmom=3600.0,
(PID.TID 0000.0001) > deltaTtracer=3600.0,
(PID.TID 0000.0001) > deltaTClock =3600.0,
(PID.TID 0000.0001) > cAdjFreq=0.,
(PID.TID 0000.0001) > abEps=0.1,
(PID.TID 0000.0001) > forcing_In_AB = .FALSE.,
(PID.TID 0000.0001) > pChkptFreq=3600.,
(PID.TID 0000.0001) > chkptFreq= 0.,
(PID.TID 0000.0001) > dumpFreq = 0.,
(PID.TID 0000.0001) > monitorFreq=1.,
(PID.TID 0000.0001) > adjMonitorFreq=1.,
(PID.TID 0000.0001) > adjDumpFreq=1.,
(PID.TID 0000.0001) > /
(PID.TID 0000.0001) >
(PID.TID 0000.0001) ># Gridding parameters
(PID.TID 0000.0001) >#
(PID.TID 0000.0001) >#   usingSphericalPolarGrid - On/Off flag for spherical polar coordinates
(PID.TID 0000.0001) >#   delX                    - Zonal grid spacing         (degrees)
(PID.TID 0000.0001) >#   delY                    - Meridional grid spacing    (degrees)
(PID.TID 0000.0001) >#   delZ                    - Vertical grid spacing      (m)
(PID.TID 0000.0001) >#   ygOrigin                - Southern boundary latitude (degrees)
(PID.TID 0000.0001) >#
(PID.TID 0000.0001) > &PARM04
(PID.TID 0000.0001) > usingSphericalPolarGrid=.TRUE.,
(PID.TID 0000.0001) > delX=20*2.E0,
(PID.TID 0000.0001) > delY=16*2.E0,
(PID.TID 0000.0001) > delZ= 10., 10., 15., 20., 20., 25., 35., 50., 75.,
(PID.TID 0000.0001) >       100., 150., 200., 275., 350., 415., 450.,
(PID.TID 0000.0001) >       500., 500., 500., 500., 500., 500., 500.,
(PID.TID 0000.0001) > ygOrigin=46.,
(PID.TID 0000.0001) > xgOrigin=280.,
(PID.TID 0000.0001) > rSphere = 6371.D3,
(PID.TID 0000.0001) > /
(PID.TID 0000.0001) >
(PID.TID 0000.0001) ># Input datasets
(PID.TID 0000.0001) >#
(PID.TID 0000.0001) >#   bathyFile       - File containing bathymetry
(PID.TID 0000.0001) >#   hydrogThetaFile - File containing initial potential temperature data
(PID.TID 0000.0001) >#   hydrogSaltFile  - File containing initial salinity data
(PID.TID 0000.0001) >#   zonalWindFile   - File containing zonal wind data
(PID.TID 0000.0001) >#   meridWindFile   - File containing meridional wind data
(PID.TID 0000.0001) >#   thetaClimFile   - File containing theta climatology used for relaxation
(PID.TID 0000.0001) >#   saltClimFile    - File containing salt climatology used for relaxation
(PID.TID 0000.0001) >#
(PID.TID 0000.0001) > &PARM05
(PID.TID 0000.0001) > bathyFile       = 'bathy.labsea1979',
(PID.TID 0000.0001) > hydrogThetaFile = 'LevCli_temp.labsea1979',
(PID.TID 0000.0001) > hydrogSaltFile  = 'LevCli_salt.labsea1979',
(PID.TID 0000.0001) > /
(PID.TID 0000.0001) >
(PID.TID 0000.0001) 
(PID.TID 0000.0001)  INI_PARMS ; starts to read PARM01
(PID.TID 0000.0001)  INI_PARMS ; read PARM01 : OK
(PID.TID 0000.0001)  INI_PARMS ; starts to read PARM02
(PID.TID 0000.0001)  INI_PARMS ; read PARM02 : OK
(PID.TID 0000.0001)  INI_PARMS ; starts to read PARM03
(PID.TID 0000.0001)  INI_PARMS ; read PARM03 : OK
(PID.TID 0000.0001)  INI_PARMS ; starts to read PARM04
(PID.TID 0000.0001)  INI_PARMS ; read PARM04 : OK
(PID.TID 0000.0001)  INI_PARMS ; starts to read PARM05
(PID.TID 0000.0001)  INI_PARMS ; read PARM05 : OK
(PID.TID 0000.0001)  INI_PARMS: finished reading file "data"
(PID.TID 0000.0001)  PACKAGES_BOOT: opening data.pkg
(PID.TID 0000.0001)  OPEN_COPY_DATA_FILE: opening file data.pkg
(PID.TID 0000.0001) // =======================================================
(PID.TID 0000.0001) // Parameter file "data.pkg"
(PID.TID 0000.0001) // =======================================================
(PID.TID 0000.0001) ># Packages
(PID.TID 0000.0001) > &PACKAGES
(PID.TID 0000.0001) >  useGMRedi = .TRUE.,
(PID.TID 0000.0001) >  useKPP    = .TRUE.,
(PID.TID 0000.0001) >  useEXF    = .TRUE.,
(PID.TID 0000.0001) >  useSEAICE = .TRUE.,
(PID.TID 0000.0001) >  useDOWN_SLOPE=.TRUE.,
(PID.TID 0000.0001) >  useDiagnostics = .true.,
(PID.TID 0000.0001) ># useMNC    = .TRUE.,
(PID.TID 0000.0001) >  useECCO   = .TRUE.,
(PID.TID 0000.0001) >  useGrdchk = .TRUE.,
(PID.TID 0000.0001) > /
(PID.TID 0000.0001) 
(PID.TID 0000.0001)  PACKAGES_BOOT: finished reading data.pkg
(PID.TID 0000.0001)  PACKAGES_BOOT: On/Off package Summary
 --------  pkgs with a standard "usePKG" On/Off switch in "data.pkg":  --------
 pkg/kpp                  compiled   and   used ( useKPP                   = T )
 pkg/gmredi               compiled   and   used ( useGMRedi                = T )
 pkg/down_slope           compiled   and   used ( useDOWN_SLOPE            = T )
 pkg/cal                  compiled   and   used ( useCAL                   = T )
 pkg/exf                  compiled   and   used ( useEXF                   = T )
 pkg/autodiff             compiled   and   used ( useAUTODIFF              = T )
 pkg/grdchk               compiled   and   used ( useGrdchk                = T )
 pkg/ecco                 compiled   and   used ( useECCO                  = T )
 pkg/ctrl                 compiled   and   used ( useCTRL                  = T )
 pkg/seaice               compiled   and   used ( useSEAICE                = T )
 pkg/salt_plume           compiled but not used ( useSALT_PLUME            = F )
 pkg/diagnostics          compiled   and   used ( useDiagnostics           = T )
 pkg/mnc                  compiled but not used ( useMNC                   = F )
 -------- pkgs without standard "usePKG" On/Off switch in "data.pkg":  --------
 pkg/generic_advdiff      compiled   and   used ( useGAD                   = T )
 pkg/mom_common           compiled   and   used ( momStepping              = T )
 pkg/mom_vecinv           compiled but not used ( +vectorInvariantMomentum = F )
 pkg/mom_fluxform         compiled   and   used ( & not vectorInvariantMom = T )
 pkg/cd_code              compiled   and   used ( useCDscheme              = T )
 pkg/monitor              compiled   and   used ( monitorFreq > 0.         = T )
 pkg/debug                compiled but not used ( debugMode                = F )
 pkg/rw                   compiled   and   used
 pkg/mdsio                compiled   and   used
 pkg/autodiff             compiled   and   used
 pkg/cost                 compiled   and   used
(PID.TID 0000.0001)  PACKAGES_BOOT: End of package Summary
(PID.TID 0000.0001) 
(PID.TID 0000.0001) CAL_READPARMS: opening data.cal
(PID.TID 0000.0001)  OPEN_COPY_DATA_FILE: opening file data.cal
(PID.TID 0000.0001) // =======================================================
(PID.TID 0000.0001) // Parameter file "data.cal"
(PID.TID 0000.0001) // =======================================================
(PID.TID 0000.0001) >#
(PID.TID 0000.0001) ># *******************
(PID.TID 0000.0001) ># Calendar Parameters
(PID.TID 0000.0001) ># *******************
(PID.TID 0000.0001) > &CAL_NML
(PID.TID 0000.0001) > TheCalendar='gregorian',
(PID.TID 0000.0001) ># TheCalendar='model',
(PID.TID 0000.0001) > startDate_1=19790101,
(PID.TID 0000.0001) > startDate_2=000000,
(PID.TID 0000.0001) > /
(PID.TID 0000.0001) 
(PID.TID 0000.0001) CAL_READPARMS: finished reading data.cal
(PID.TID 0000.0001) EXF_READPARMS: opening data.exf
(PID.TID 0000.0001)  OPEN_COPY_DATA_FILE: opening file data.exf
(PID.TID 0000.0001) // =======================================================
(PID.TID 0000.0001) // Parameter file "data.exf"
(PID.TID 0000.0001) // =======================================================
(PID.TID 0000.0001) >#
(PID.TID 0000.0001) ># *********************
(PID.TID 0000.0001) ># External Forcing Data
(PID.TID 0000.0001) ># *********************
(PID.TID 0000.0001) > &EXF_NML_01
(PID.TID 0000.0001) >#
(PID.TID 0000.0001) > useExfCheckRange  = .TRUE.,
(PID.TID 0000.0001) > repeatPeriod      = 31622400.0,
(PID.TID 0000.0001) > exf_iprec         = 32,
(PID.TID 0000.0001) >#
(PID.TID 0000.0001) > exf_adjMonSelect  = 3,
(PID.TID 0000.0001) > exf_adjMonFreq    = 10800.,
(PID.TID 0000.0001) > /
(PID.TID 0000.0001) >
(PID.TID 0000.0001) ># *********************
(PID.TID 0000.0001) > &EXF_NML_02
(PID.TID 0000.0001) >#
(PID.TID 0000.0001) > hfluxstartdate1   = 19781216,
(PID.TID 0000.0001) > hfluxstartdate2   = 180000,
(PID.TID 0000.0001) > hfluxperiod       = 2635200.0,
(PID.TID 0000.0001) >#
(PID.TID 0000.0001) > sfluxstartdate1   = 19781216,
(PID.TID 0000.0001) > sfluxstartdate2   = 180000,
(PID.TID 0000.0001) > sfluxperiod       = 2635200.0,
(PID.TID 0000.0001) >#
(PID.TID 0000.0001) > ustressstartdate1 = 19781216,
(PID.TID 0000.0001) > ustressstartdate2 = 180000,
(PID.TID 0000.0001) > ustressperiod     = 2635200.0,
(PID.TID 0000.0001) >#
(PID.TID 0000.0001) > vstressstartdate1 = 19781216,
(PID.TID 0000.0001) > vstressstartdate2 = 180000,
(PID.TID 0000.0001) > vstressperiod     = 2635200.0,
(PID.TID 0000.0001) >#
(PID.TID 0000.0001) > atempstartdate1   = 19781216,
(PID.TID 0000.0001) > atempstartdate2   = 180000,
(PID.TID 0000.0001) > atempperiod       = 2635200.0,
(PID.TID 0000.0001) >#
(PID.TID 0000.0001) > aqhstartdate1     = 19781216,
(PID.TID 0000.0001) > aqhstartdate2     = 180000,
(PID.TID 0000.0001) > aqhperiod         = 2635200.0,
(PID.TID 0000.0001) >#
(PID.TID 0000.0001) >#evapstartdate1    = 19781216,
(PID.TID 0000.0001) >#evapstartdate2    = 180000,
(PID.TID 0000.0001) >#evapperiod        = 2635200.0,
(PID.TID 0000.0001) >#
(PID.TID 0000.0001) > precipstartdate1  = 19781216,
(PID.TID 0000.0001) > precipstartdate2  = 180000,
(PID.TID 0000.0001) > precipperiod      = 2635200.0,
(PID.TID 0000.0001) >#
(PID.TID 0000.0001) > uwindstartdate1   = 19781216,
(PID.TID 0000.0001) > uwindstartdate2   = 180000,
(PID.TID 0000.0001) > uwindperiod       = 2635200.0,
(PID.TID 0000.0001) >#
(PID.TID 0000.0001) > vwindstartdate1   = 19781216,
(PID.TID 0000.0001) > vwindstartdate2   = 180000,
(PID.TID 0000.0001) > vwindperiod       = 2635200.0,
(PID.TID 0000.0001) >#
(PID.TID 0000.0001) > swfluxstartdate1  = 19781216,
(PID.TID 0000.0001) > swfluxstartdate2  = 180000,
(PID.TID 0000.0001) > swfluxperiod      = 2635200.0,
(PID.TID 0000.0001) >#
(PID.TID 0000.0001) > lwfluxstartdate1  = 19781216,
(PID.TID 0000.0001) > lwfluxstartdate2  = 180000,
(PID.TID 0000.0001) > lwfluxperiod      = 2635200.0,
(PID.TID 0000.0001) >#
(PID.TID 0000.0001) > swdownstartdate1  = 19781216,
(PID.TID 0000.0001) > swdownstartdate2  = 180000,
(PID.TID 0000.0001) > swdownperiod      = 2635200.0,
(PID.TID 0000.0001) >#
(PID.TID 0000.0001) > lwdownstartdate1  = 19781216,
(PID.TID 0000.0001) > lwdownstartdate2  = 180000,
(PID.TID 0000.0001) > lwdownperiod      = 2635200.0,
(PID.TID 0000.0001) >#
(PID.TID 0000.0001) > climsststartdate1  = 19781216,
(PID.TID 0000.0001) > climsststartdate2  = 180000,
(PID.TID 0000.0001) > climsstperiod      = 2635200.0,
(PID.TID 0000.0001) > climsstTauRelax    = 0.0,
(PID.TID 0000.0001) >#
(PID.TID 0000.0001) > climsssstartdate1  = 19781216,
(PID.TID 0000.0001) > climsssstartdate2  = 180000,
(PID.TID 0000.0001) > climsssperiod      = 2635200.0,
(PID.TID 0000.0001) > climsssTauRelax    = 4142330.0,
(PID.TID 0000.0001) >#
(PID.TID 0000.0001) > hfluxfile         = ' ',
(PID.TID 0000.0001) > sfluxfile         = ' ',
(PID.TID 0000.0001) > ustressfile       = ' ',
(PID.TID 0000.0001) > vstressfile       = ' ',
(PID.TID 0000.0001) > atempfile         = 'tair.labsea1979',
(PID.TID 0000.0001) > aqhfile           = 'qa.labsea1979',
(PID.TID 0000.0001) > uwindfile         = 'u10m.labsea1979',
(PID.TID 0000.0001) > vwindfile         = 'v10m.labsea1979',
(PID.TID 0000.0001) >#evapfile          = 'evap.labsea1979',
(PID.TID 0000.0001) > precipfile        = 'prate.labsea1979',
(PID.TID 0000.0001) > lwfluxfile        = ' ',
(PID.TID 0000.0001) > swfluxfile        = ' ',
(PID.TID 0000.0001) > lwdownfile        = 'flo.labsea1979',
(PID.TID 0000.0001) > swdownfile        = 'fsh.labsea1979',
(PID.TID 0000.0001) > runoffFile        = ' '
(PID.TID 0000.0001) > climsstfile       = ' ',
(PID.TID 0000.0001) > climsssfile       = 'SSS_monthly.labsea1979',
(PID.TID 0000.0001) >#
(PID.TID 0000.0001) > /
(PID.TID 0000.0001) >
(PID.TID 0000.0001) ># *********************
(PID.TID 0000.0001) > &EXF_NML_03
(PID.TID 0000.0001) > /
(PID.TID 0000.0001) >
(PID.TID 0000.0001) ># *********************
(PID.TID 0000.0001) > &EXF_NML_04
(PID.TID 0000.0001) > /
(PID.TID 0000.0001) 
(PID.TID 0000.0001) EXF_READPARMS: reading EXF_NML_01
(PID.TID 0000.0001) EXF_READPARMS: reading EXF_NML_02
(PID.TID 0000.0001) EXF_READPARMS: reading EXF_NML_03
(PID.TID 0000.0001) EXF_READPARMS: finished reading data.exf
(PID.TID 0000.0001)  KPP_READPARMS: opening data.kpp
(PID.TID 0000.0001)  OPEN_COPY_DATA_FILE: opening file data.kpp
(PID.TID 0000.0001) // =======================================================
(PID.TID 0000.0001) // Parameter file "data.kpp"
(PID.TID 0000.0001) // =======================================================
(PID.TID 0000.0001) ># KPP parameters
(PID.TID 0000.0001) > &KPP_PARM01
(PID.TID 0000.0001) > KPPmixingMaps   = .FALSE.,
(PID.TID 0000.0001) > KPPwriteState   = .TRUE.,
(PID.TID 0000.0001) > KPP_ghatUseTotalDiffus=.TRUE.,
(PID.TID 0000.0001) > /
(PID.TID 0000.0001) 
(PID.TID 0000.0001)  KPP_READPARMS ; starts to read KPP_PARM01
(PID.TID 0000.0001)  KPP_READPARMS ; read KPP_PARM01 : OK
(PID.TID 0000.0001)  KPP_READPARMS: finished reading data.kpp
(PID.TID 0000.0001)  GM_READPARMS: opening data.gmredi
(PID.TID 0000.0001)  OPEN_COPY_DATA_FILE: opening file data.gmredi
(PID.TID 0000.0001) // =======================================================
(PID.TID 0000.0001) // Parameter file "data.gmredi"
(PID.TID 0000.0001) // =======================================================
(PID.TID 0000.0001) ># GM+Redi package parameters:
(PID.TID 0000.0001) >#     GM_Small_Number  :: epsilon used in computing the slope
(PID.TID 0000.0001) >#     GM_slopeSqCutoff :: slope^2 cut-off value
(PID.TID 0000.0001) >
(PID.TID 0000.0001) >#-from MOM :
(PID.TID 0000.0001) ># GM_background_K: 	G & Mc.W  diffusion coefficient
(PID.TID 0000.0001) ># GM_maxSlope    :	max slope of isopycnals
(PID.TID 0000.0001) ># GM_Scrit       :	transition for scaling diffusion coefficient
(PID.TID 0000.0001) ># GM_Sd          :	half width scaling for diffusion coefficient
(PID.TID 0000.0001) ># GM_taper_scheme:	slope clipping or one of the tapering schemes
(PID.TID 0000.0001) ># GM_Kmin_horiz  :	horizontal diffusion minimum value
(PID.TID 0000.0001) >
(PID.TID 0000.0001) >#-Option parameters (needs to "define" options in GMREDI_OPTIONS.h")
(PID.TID 0000.0001) ># GM_isopycK     :	isopycnal diffusion coefficient (default=GM_background_K)
(PID.TID 0000.0001) ># GM_AdvForm     :	turn on GM Advective form       (default=Skew flux form)
(PID.TID 0000.0001) >
(PID.TID 0000.0001) > &GM_PARM01
(PID.TID 0000.0001) >  GM_Small_Number  = 1.D-20,
(PID.TID 0000.0001) >  GM_slopeSqCutoff = 1.D+08,
(PID.TID 0000.0001) >  GM_AdvForm         = .FALSE.,
(PID.TID 0000.0001) >#  GM_isopycK         = 1.1D+3,
(PID.TID 0000.0001) >#  GM_background_K    = 0.9D+3,
(PID.TID 0000.0001) >  GM_background_K    = 1.D+3,
(PID.TID 0000.0001) >  GM_taper_scheme    = 'dm95',
(PID.TID 0000.0001) >  GM_maxSlope        = 1.D-2,
(PID.TID 0000.0001) >  GM_Kmin_horiz      = 50.,
(PID.TID 0000.0001) >  GM_Scrit           = 4.D-3,
(PID.TID 0000.0001) >  GM_Sd              = 1.D-3,
(PID.TID 0000.0001) >#  GM_Visbeck_alpha   = 1.5D-2,
(PID.TID 0000.0001) >  GM_Visbeck_alpha   = 0.,
(PID.TID 0000.0001) >  GM_Visbeck_length  = 2.D+5,
(PID.TID 0000.0001) >  GM_Visbeck_depth   = 1.D+3,
(PID.TID 0000.0001) >  GM_Visbeck_maxval_K= 2.5D+3,
(PID.TID 0000.0001) > /
(PID.TID 0000.0001) >
(PID.TID 0000.0001) >
(PID.TID 0000.0001) 
(PID.TID 0000.0001)  GM_READPARMS: finished reading data.gmredi
(PID.TID 0000.0001)  DWNSLP_READPARMS: opening data.down_slope
(PID.TID 0000.0001)  OPEN_COPY_DATA_FILE: opening file data.down_slope
(PID.TID 0000.0001) // =======================================================
(PID.TID 0000.0001) // Parameter file "data.down_slope"
(PID.TID 0000.0001) // =======================================================
(PID.TID 0000.0001) ># DOWN_SLOPE package parameters (lines beginning "#" are comments):
(PID.TID 0000.0001) >#   DWNSLP_slope  :: fixed slope (=0 => use the local slope)
(PID.TID 0000.0001) >#   DWNSLP_rec_mu :: reciprol friction parameter (unit = time scale [s])
(PID.TID 0000.0001) >#         used to compute the flow: U=dy*dz*(slope * g/mu * dRho / rho0)
(PID.TID 0000.0001) >#   dwnslp_drFlow :: max. thickness [m] of the effective downsloping flow layer
(PID.TID 0000.0001) > &DWNSLP_PARM01
(PID.TID 0000.0001) >  DWNSLP_slope = 5.E-3,
(PID.TID 0000.0001) >  DWNSLP_rec_mu= 1.E+4,
(PID.TID 0000.0001) >  DWNSLP_drFlow= 30.,
(PID.TID 0000.0001) ># temp_useDWNSLP=.FALSE.,
(PID.TID 0000.0001) ># salt_useDWNSLP=.FALSE.,
(PID.TID 0000.0001) > /
(PID.TID 0000.0001) 
(PID.TID 0000.0001)  DWNSLP_READPARMS: finished reading data.downslp
(PID.TID 0000.0001) DWNSLP_slope =   /* DOWNSLP fixed slope (=0 => use local slope) */
(PID.TID 0000.0001)                 5.000000000000000E-03
(PID.TID 0000.0001)     ;
(PID.TID 0000.0001) DWNSLP_rec_mu =   /* DOWNSLP recip. friction parameter (time, s ) */
(PID.TID 0000.0001)                 1.000000000000000E+04
(PID.TID 0000.0001)     ;
(PID.TID 0000.0001) DWNSLP_drFlow =   /* DOWNSLP effective layer thickness ( m ) */
(PID.TID 0000.0001)                 3.000000000000000E+01
(PID.TID 0000.0001)     ;
(PID.TID 0000.0001) 
(PID.TID 0000.0001)  SEAICE_READPARMS: opening data.seaice
(PID.TID 0000.0001)  OPEN_COPY_DATA_FILE: opening file data.seaice
(PID.TID 0000.0001) // =======================================================
(PID.TID 0000.0001) // Parameter file "data.seaice"
(PID.TID 0000.0001) // =======================================================
(PID.TID 0000.0001) ># SEAICE parameters
(PID.TID 0000.0001) > &SEAICE_PARM01
(PID.TID 0000.0001) >      SEAICE_initialHEFF = 1.0,
(PID.TID 0000.0001) >      SEAICE_deltaTtherm = 3600.,
(PID.TID 0000.0001) >      SEAICE_deltaTdyn   = 3600.,
(PID.TID 0000.0001) >      SEAICEuseDYNAMICS  =.TRUE.,
(PID.TID 0000.0001) >#-- According to Martin, SEAICE_clipVelocities is not recommended
(PID.TID 0000.0001) >#     SEAICE_clipVelocities=.TRUE.,
(PID.TID 0000.0001) >      SEAICEadvSalt      =.FALSE.,
(PID.TID 0000.0001) >#-- above: to reproduce old results
(PID.TID 0000.0001) >      LSR_ERROR          = 1.E-6,
(PID.TID 0000.0001) >###      SEAICE_deltaTevp   = 60,
(PID.TID 0000.0001) >      SEAICE_EPS         = 1.E-8,
(PID.TID 0000.0001) >      SEAICE_multDim     = 7,
(PID.TID 0000.0001) >#- to reproduce old results with former #defined SEAICE_SOLVE4TEMP_LEGACY code
(PID.TID 0000.0001) >  useMaykutSatVapPoly = .TRUE.,
(PID.TID 0000.0001) >  postSolvTempIter  =  0,
(PID.TID 0000.0001) >#- paramaters from SEAICE_GROWTH_LEGACY branch
(PID.TID 0000.0001) >      SEAICE_doOpenWaterGrowth=.FALSE.,
(PID.TID 0000.0001) >      SEAICE_doOpenWaterMelt=.FALSE.,
(PID.TID 0000.0001) >      SEAICE_areaGainFormula=2,
(PID.TID 0000.0001) >      SEAICE_areaLossFormula=3,
(PID.TID 0000.0001) >#
(PID.TID 0000.0001) >      SEAICE_saltFrac    = 0.3,
(PID.TID 0000.0001) >      SEAICE_tempFrz0    = -1.96,
(PID.TID 0000.0001) >      SEAICE_dTempFrz_dS = 0.,
(PID.TID 0000.0001) >      SEAICE_availHeatFrac = 0.8,
(PID.TID 0000.0001) >      SEAICEdiffKhArea   = 200.,
(PID.TID 0000.0001) >      SEAICEwriteState   = .TRUE.,
(PID.TID 0000.0001) >#     SEAICE_tave_mnc    = .FALSE.,
(PID.TID 0000.0001) >#     SEAICE_dump_mnc    = .FALSE.,
(PID.TID 0000.0001) >#     SEAICE_mon_mnc     = .FALSE.,
(PID.TID 0000.0001) ># old defaults
(PID.TID 0000.0001) > SEAICEadvScheme       = 2,
(PID.TID 0000.0001) > SEAICEscaleSurfStress = .FALSE.,
(PID.TID 0000.0001) > SEAICEaddSnowMass     = .FALSE.,
(PID.TID 0000.0001) > SEAICE_useMultDimSnow = .FALSE.,
(PID.TID 0000.0001) > SEAICEetaZmethod = 0,
(PID.TID 0000.0001) > SEAICE_Olx       = 0,
(PID.TID 0000.0001) > SEAICE_Oly       = 0,
(PID.TID 0000.0001) > SEAICE_drag      = 0.002,
(PID.TID 0000.0001) > SEAICE_waterDrag = 0.005355404089581304,
(PID.TID 0000.0001) > /
(PID.TID 0000.0001) >
(PID.TID 0000.0001) > &SEAICE_PARM02
(PID.TID 0000.0001) ># currently COST_ICE_TEST is undefined in SEAICE_OPTIONS.h,
(PID.TID 0000.0001) ># so that none of these parameters are used and the cost function
(PID.TID 0000.0001) ># contribution by sea ice is zero (f_ice = 0.)
(PID.TID 0000.0001) >  mult_ice   = 1.,
(PID.TID 0000.0001) ># choose which seaice cost term you want
(PID.TID 0000.0001) >  cost_ice_flag = 1,
(PID.TID 0000.0001) ># the following timings are obsolete;
(PID.TID 0000.0001) ># replaced by lastinterval
(PID.TID 0000.0001) > costIceStart1        = 20000101,
(PID.TID 0000.0001) > costIceStart2        = 00000,
(PID.TID 0000.0001) > costIceEnd1        = 20000201,
(PID.TID 0000.0001) > costIceEnd2        = 00000,
(PID.TID 0000.0001) > /
(PID.TID 0000.0001) >
(PID.TID 0000.0001) > &SEAICE_PARM03
(PID.TID 0000.0001) > /
(PID.TID 0000.0001) 
(PID.TID 0000.0001)  SEAICE_READPARMS: finished reading data.seaice
(PID.TID 0000.0001) AUTODIFF_READPARMS: opening data.autodiff
(PID.TID 0000.0001)  OPEN_COPY_DATA_FILE: opening file data.autodiff
(PID.TID 0000.0001) // =======================================================
(PID.TID 0000.0001) // Parameter file "data.autodiff"
(PID.TID 0000.0001) // =======================================================
(PID.TID 0000.0001) ># =========================
(PID.TID 0000.0001) ># pkg AUTODIFF parameters :
(PID.TID 0000.0001) ># =========================
(PID.TID 0000.0001) >#  inAdExact :: get an exact adjoint (no approximation) (def=.True.)
(PID.TID 0000.0001) >#
(PID.TID 0000.0001) > &AUTODIFF_PARM01
(PID.TID 0000.0001) ># inAdExact = .FALSE.,
(PID.TID 0000.0001) ># useKPPinAdMode = .FALSE.,
(PID.TID 0000.0001) ># useGMRediInAdMode = .FALSE.,
(PID.TID 0000.0001) > /
(PID.TID 0000.0001) 
(PID.TID 0000.0001) AUTODIFF_READPARMS: finished reading data.autodiff
(PID.TID 0000.0001) // ===================================
(PID.TID 0000.0001) // AUTODIFF parameters :
(PID.TID 0000.0001) // ===================================
(PID.TID 0000.0001) inAdExact = /* get an exact adjoint (no approximation) */
(PID.TID 0000.0001)                   T
(PID.TID 0000.0001)     ;
(PID.TID 0000.0001) useApproxAdvectionInAdMode = /* approximate AD-advection */
(PID.TID 0000.0001)                   F
(PID.TID 0000.0001)     ;
(PID.TID 0000.0001) cg2dFullAdjoint = /* use full hand written cg2d adjoint (no approximation) */
(PID.TID 0000.0001)                   F
(PID.TID 0000.0001)     ;
(PID.TID 0000.0001) useKPPinAdMode = /* use KPP in adjoint mode */
(PID.TID 0000.0001)                   T
(PID.TID 0000.0001)     ;
(PID.TID 0000.0001) useGMRediInAdMode = /* use GMRedi in adjoint mode */
(PID.TID 0000.0001)                   T
(PID.TID 0000.0001)     ;
(PID.TID 0000.0001) useSEAICEinAdMode = /* use SEAICE in adjoint mode */
(PID.TID 0000.0001)                   T
(PID.TID 0000.0001)     ;
(PID.TID 0000.0001) useGGL90inAdMode = /* use GGL90 in adjoint mode */
(PID.TID 0000.0001)                   F
(PID.TID 0000.0001)     ;
(PID.TID 0000.0001) useSALT_PLUMEinAdMode = /* use SALT_PLUME in adjoint mode */
(PID.TID 0000.0001)                   F
(PID.TID 0000.0001)     ;
(PID.TID 0000.0001) SEAICEuseDYNAMICSswitchInAd = /* switch On/Off SEAICE Dyn in AD mode */
(PID.TID 0000.0001)                   F
(PID.TID 0000.0001)     ;
(PID.TID 0000.0001) SEAICEuseFREEDRIFTswitchInAd= /* switch On/Off Free-Drift in AD mode */
(PID.TID 0000.0001)                   F
(PID.TID 0000.0001)     ;
(PID.TID 0000.0001) SEAICEapproxLevInAd = /* -1:SEAICE_FAKE, >0:other adjoint approximation */
(PID.TID 0000.0001)                       0
(PID.TID 0000.0001)     ;
(PID.TID 0000.0001) dumpAdVarExch = /* control adexch before dumpinp */
(PID.TID 0000.0001)                       2
(PID.TID 0000.0001)     ;
(PID.TID 0000.0001) mon_AdVarExch = /* control adexch before monitor */
(PID.TID 0000.0001)                       2
(PID.TID 0000.0001)     ;
(PID.TID 0000.0001) viscFacInFw = /* viscosity factor for forward model */
(PID.TID 0000.0001)                 1.000000000000000E+00
(PID.TID 0000.0001)     ;
(PID.TID 0000.0001) viscFacInAd = /* viscosity factor for adjoint */
(PID.TID 0000.0001)                 1.000000000000000E+00
(PID.TID 0000.0001)     ;
(PID.TID 0000.0001) SIregFacInAd = /* sea ice factor for adjoint model */
(PID.TID 0000.0001)                 1.234567000000000E+05
(PID.TID 0000.0001)     ;
(PID.TID 0000.0001) SIregFacInFw = /* sea ice factor for forward model */
(PID.TID 0000.0001)                 1.234567000000000E+05
(PID.TID 0000.0001)     ;
(PID.TID 0000.0001) 
(PID.TID 0000.0001) OPTIM_READPARMS: opening data.optim
(PID.TID 0000.0001)  OPEN_COPY_DATA_FILE: opening file data.optim
(PID.TID 0000.0001) // =======================================================
(PID.TID 0000.0001) // Parameter file "data.optim"
(PID.TID 0000.0001) // =======================================================
(PID.TID 0000.0001) >#
(PID.TID 0000.0001) ># ********************************
(PID.TID 0000.0001) ># Off-line optimization parameters
(PID.TID 0000.0001) ># ********************************
(PID.TID 0000.0001) > &OPTIM
(PID.TID 0000.0001) > optimcycle=1,
(PID.TID 0000.0001) > /
(PID.TID 0000.0001) 
(PID.TID 0000.0001) OPTIM_READPARMS: finished reading data.optim
(PID.TID 0000.0001) CTRL_READPARMS: opening data.ctrl
(PID.TID 0000.0001)  OPEN_COPY_DATA_FILE: opening file data.ctrl
(PID.TID 0000.0001) // =======================================================
(PID.TID 0000.0001) // Parameter file "data.ctrl"
(PID.TID 0000.0001) // =======================================================
(PID.TID 0000.0001) >#
(PID.TID 0000.0001) >#
(PID.TID 0000.0001) ># *********************
(PID.TID 0000.0001) ># ECCO controlvariables
(PID.TID 0000.0001) ># *********************
(PID.TID 0000.0001) > &CTRL_NML
(PID.TID 0000.0001) ># write control variables into a separate directory
(PID.TID 0000.0001) > ctrlDir = './ctrl_variables',
(PID.TID 0000.0001) > doInitXX = .FALSE.,
(PID.TID 0000.0001) > doMainPack = .FALSE.,
(PID.TID 0000.0001) > doMainUnpack = .FALSE.,
(PID.TID 0000.0001) > ctrlDir = ' ',
(PID.TID 0000.0001) > /
(PID.TID 0000.0001) >#
(PID.TID 0000.0001) ># *********************
(PID.TID 0000.0001) ># names for ctrl_pack/unpack
(PID.TID 0000.0001) ># *********************
(PID.TID 0000.0001) > &CTRL_PACKNAMES
(PID.TID 0000.0001) > /
(PID.TID 0000.0001) >#
(PID.TID 0000.0001) ># *********************
(PID.TID 0000.0001) ># names for CTRL_GENARR, CTRL_GENTIM
(PID.TID 0000.0001) ># *********************
(PID.TID 0000.0001) > &CTRL_NML_GENARR
(PID.TID 0000.0001) ># xx_genarr3d_file(1)       = 'xx_theta',
(PID.TID 0000.0001) ># xx_genarr3d_weight(1)     = 'ones_64b.bin',
(PID.TID 0000.0001) ># xx_genarr3d_bounds(1:5,1) = -2.,-1.9,39.,40.,5.,
(PID.TID 0000.0001) >##mult_genarr3d(1)          = 1.0,
(PID.TID 0000.0001) >##
(PID.TID 0000.0001) ># xx_genarr3d_file(2)       = 'xx_salt',
(PID.TID 0000.0001) ># xx_genarr3d_weight(2)     = 'ones_64b.bin',
(PID.TID 0000.0001) ># xx_genarr3d_bounds(1:5,2) = 29.,29.5,40.5,41.,5.,
(PID.TID 0000.0001) >##mult_genarr3d(2)          = 1.0,
(PID.TID 0000.0001) >##
(PID.TID 0000.0001) ># xx_genarr2d_file(1)       = 'xx_siarea',
(PID.TID 0000.0001) ># xx_genarr2d_weight(1)     = 'ones_64b.bin',
(PID.TID 0000.0001) >##xx_genarr2d_bounds(1:5,1) = 0.,0.,1.,1.,0.,
(PID.TID 0000.0001) >##mult_genarr2d(1)          = 1.0,
(PID.TID 0000.0001) >##
(PID.TID 0000.0001) ># xx_genarr2d_file(2)       = 'xx_siheff',
(PID.TID 0000.0001) ># xx_genarr2d_weight(2)     = 'ones_64b.bin',
(PID.TID 0000.0001) >##xx_genarr2d_bounds(1:5,2) = 0.,0.,1.,1.,0.,
(PID.TID 0000.0001) >##mult_genarr2d(2)          = 1.0,
(PID.TID 0000.0001) >#
(PID.TID 0000.0001) > xx_gentim2d_file(1)       = 'xx_atemp',
(PID.TID 0000.0001) > xx_gentim2d_weight(1)     = 'ones_64b.bin',
(PID.TID 0000.0001) > xx_gentim2d_startdate1(1) = 19790101,
(PID.TID 0000.0001) > xx_gentim2d_startdate2(1) = 000000,
(PID.TID 0000.0001) > xx_gentim2d_period(1)     = 3600.0,
(PID.TID 0000.0001) > xx_gentim2d_preproc(1,1)  ='noscaling',
(PID.TID 0000.0001) > mult_gentim2d(1)          = 0.0,
(PID.TID 0000.0001) ># xx_gentim2d_period(1)     = 864000.0,
(PID.TID 0000.0001) >#mult_gentim2d(9)          = 1.0,
(PID.TID 0000.0001) >#
(PID.TID 0000.0001) ># xx_gentim2d_file(2)       = 'xx_aqh',
(PID.TID 0000.0001) ># xx_gentim2d_weight(2)     = 'ones_64b.bin',
(PID.TID 0000.0001) ># xx_gentim2d_startdate1(2) = 19790101,
(PID.TID 0000.0001) ># xx_gentim2d_startdate2(2) = 000000,
(PID.TID 0000.0001) ># xx_gentim2d_period(2)     = 864000.0,
(PID.TID 0000.0001) >##mult_gentim2d(9)          = 1.0,
(PID.TID 0000.0001) >##
(PID.TID 0000.0001) ># xx_gentim2d_file(3)       = 'xx_precip',
(PID.TID 0000.0001) ># xx_gentim2d_weight(3)     = 'ones_64b.bin',
(PID.TID 0000.0001) ># xx_gentim2d_startdate1(3) = 19790101,
(PID.TID 0000.0001) ># xx_gentim2d_startdate2(3) = 000000,
(PID.TID 0000.0001) ># xx_gentim2d_period(3)     = 864000.0,
(PID.TID 0000.0001) >##mult_gentim2d(9)          = 1.0,
(PID.TID 0000.0001) >##
(PID.TID 0000.0001) ># xx_gentim2d_file(4)       = 'xx_snowprecip',
(PID.TID 0000.0001) ># xx_gentim2d_weight(4)     = 'ones_64b.bin',
(PID.TID 0000.0001) ># xx_gentim2d_startdate1(4) = 19790101,
(PID.TID 0000.0001) ># xx_gentim2d_startdate2(4) = 000000,
(PID.TID 0000.0001) ># xx_gentim2d_period(4)     = 864000.0,
(PID.TID 0000.0001) >##mult_gentim2d(9)          = 1.0,
(PID.TID 0000.0001) >##
(PID.TID 0000.0001) ># xx_gentim2d_file(5)       = 'xx_swdown',
(PID.TID 0000.0001) ># xx_gentim2d_weight(5)     = 'ones_64b.bin',
(PID.TID 0000.0001) ># xx_gentim2d_startdate1(5) = 19790101,
(PID.TID 0000.0001) ># xx_gentim2d_startdate2(5) = 000000,
(PID.TID 0000.0001) ># xx_gentim2d_period(5)     = 864000.0,
(PID.TID 0000.0001) >##mult_gentim2d(9)          = 1.0,
(PID.TID 0000.0001) >##
(PID.TID 0000.0001) ># xx_gentim2d_file(6)       = 'xx_lwdown',
(PID.TID 0000.0001) ># xx_gentim2d_weight(6)     = 'ones_64b.bin',
(PID.TID 0000.0001) ># xx_gentim2d_startdate1(6) = 19790101,
(PID.TID 0000.0001) ># xx_gentim2d_startdate2(6) = 000000,
(PID.TID 0000.0001) ># xx_gentim2d_period(6)     = 864000.0,
(PID.TID 0000.0001) >##mult_gentim2d(9)          = 1.0,
(PID.TID 0000.0001) >##
(PID.TID 0000.0001) ># xx_gentim2d_file(7)       = 'xx_uwind',
(PID.TID 0000.0001) ># xx_gentim2d_weight(7)     = 'ones_64b.bin',
(PID.TID 0000.0001) ># xx_gentim2d_startdate1(7) = 19790101,
(PID.TID 0000.0001) ># xx_gentim2d_startdate2(7) = 000000,
(PID.TID 0000.0001) ># xx_gentim2d_period(7)     = 864000.0,
(PID.TID 0000.0001) >##mult_gentim2d(9)          = 1.0,
(PID.TID 0000.0001) >##
(PID.TID 0000.0001) ># xx_gentim2d_file(8)       = 'xx_vwind',
(PID.TID 0000.0001) ># xx_gentim2d_weight(8)     = 'ones_64b.bin',
(PID.TID 0000.0001) ># xx_gentim2d_startdate1(8) = 19790101,
(PID.TID 0000.0001) ># xx_gentim2d_startdate2(8) = 000000,
(PID.TID 0000.0001) ># xx_gentim2d_period(8)     = 864000.0,
(PID.TID 0000.0001) >##mult_gentim2d(9)          = 1.0,
(PID.TID 0000.0001) >##
(PID.TID 0000.0001) ># xx_gentim2d_file(9)       = 'xx_apressure',
(PID.TID 0000.0001) ># xx_gentim2d_weight(9)     = 'ones_64b.bin',
(PID.TID 0000.0001) ># xx_gentim2d_startdate1(9) = 19790101,
(PID.TID 0000.0001) ># xx_gentim2d_startdate2(9) = 000000,
(PID.TID 0000.0001) ># xx_gentim2d_period(9)     = 864000.0,
(PID.TID 0000.0001) >##mult_gentim2d(9)          = 1.0,
(PID.TID 0000.0001) >#
(PID.TID 0000.0001) > /
(PID.TID 0000.0001) 
(PID.TID 0000.0001) CTRL_READPARMS: finished reading data.ctrl
(PID.TID 0000.0001) read-write ctrl files from current run directory
(PID.TID 0000.0001) COST_READPARMS: opening data.cost
(PID.TID 0000.0001)  OPEN_COPY_DATA_FILE: opening file data.cost
(PID.TID 0000.0001) // =======================================================
(PID.TID 0000.0001) // Parameter file "data.cost"
(PID.TID 0000.0001) // =======================================================
(PID.TID 0000.0001) >#
(PID.TID 0000.0001) >#
(PID.TID 0000.0001) ># ******************
(PID.TID 0000.0001) ># cost function
(PID.TID 0000.0001) ># ******************
(PID.TID 0000.0001) > &COST_NML
(PID.TID 0000.0001) > /
(PID.TID 0000.0001) 
(PID.TID 0000.0001) COST_READPARMS: finished reading data.cost
(PID.TID 0000.0001) GRDCHK_READPARMS: opening data.grdchk
(PID.TID 0000.0001)  OPEN_COPY_DATA_FILE: opening file data.grdchk
(PID.TID 0000.0001) // =======================================================
(PID.TID 0000.0001) // Parameter file "data.grdchk"
(PID.TID 0000.0001) // =======================================================
(PID.TID 0000.0001) >
(PID.TID 0000.0001) ># *******************
(PID.TID 0000.0001) ># ECCO gradient check
(PID.TID 0000.0001) ># *******************
(PID.TID 0000.0001) > &GRDCHK_NML
(PID.TID 0000.0001) > grdchk_eps       = 1.d-4,
(PID.TID 0000.0001) ># nbeg             = 4,
(PID.TID 0000.0001) > iGloPos          = 4,
(PID.TID 0000.0001) > jGloPos          = 8,
(PID.TID 0000.0001) > kGloPos          = 1,
(PID.TID 0000.0001) > nstep            = 1,
(PID.TID 0000.0001) > nend             = 4,
(PID.TID 0000.0001) > grdchkvarindex   = 301,
(PID.TID 0000.0001) > /
(PID.TID 0000.0001) 
(PID.TID 0000.0001) GRDCHK_READPARMS: finished reading data.grdchk
(PID.TID 0000.0001) 
(PID.TID 0000.0001) // =======================================================
(PID.TID 0000.0001) // Gradient check configuration  >>> START <<<
(PID.TID 0000.0001) // =======================================================
(PID.TID 0000.0001) 
(PID.TID 0000.0001)   grdchkvarindex :                        301
(PID.TID 0000.0001)   eps:                              0.100E-03
(PID.TID 0000.0001)   First location:                           0
(PID.TID 0000.0001)   Last location:                            4
(PID.TID 0000.0001)   Increment:                                1
(PID.TID 0000.0001)   grdchkWhichProc:                          0
(PID.TID 0000.0001)   iLocTile =       1  ,    jLocTile =       1
(PID.TID 0000.0001) 
(PID.TID 0000.0001) // =======================================================
(PID.TID 0000.0001) // Gradient check configuration  >>> END <<<
(PID.TID 0000.0001) // =======================================================
(PID.TID 0000.0001) 
(PID.TID 0000.0001) ECCO_READPARMS: opening data.ecco
(PID.TID 0000.0001)  OPEN_COPY_DATA_FILE: opening file data.ecco
(PID.TID 0000.0001) // =======================================================
(PID.TID 0000.0001) // Parameter file "data.ecco"
(PID.TID 0000.0001) // =======================================================
(PID.TID 0000.0001) ># ******************
(PID.TID 0000.0001) ># ECCO cost function
(PID.TID 0000.0001) ># ******************
(PID.TID 0000.0001) > &ECCO_COST_NML
(PID.TID 0000.0001) > cost_iprec  = 64,
(PID.TID 0000.0001) > /
(PID.TID 0000.0001) >
(PID.TID 0000.0001) > &ECCO_GENCOST_NML
(PID.TID 0000.0001) ># gencost_avgperiod(1) = 'month',
(PID.TID 0000.0001) ># gencost_barfile(1) = 'm_theta_month',
(PID.TID 0000.0001) ># gencost_datafile(1) = 'labsea_Lev.ptmp',
(PID.TID 0000.0001) ># gencost_errfile(1) = 'sigma_theta.bin',
(PID.TID 0000.0001) ># gencost_name(1) = 'theta',
(PID.TID 0000.0001) ># gencost_spmin(1) = -1.8,
(PID.TID 0000.0001) ># gencost_spmax(1) = 40.,
(PID.TID 0000.0001) ># gencost_spzero(1) = 0.,
(PID.TID 0000.0001) ># gencost_outputlevel(1)=1,
(PID.TID 0000.0001) ># mult_gencost(1) = 1.,
(PID.TID 0000.0001) >##
(PID.TID 0000.0001) ># gencost_avgperiod(2) = 'month',
(PID.TID 0000.0001) ># gencost_barfile(2) = 'm_salt_month',
(PID.TID 0000.0001) ># gencost_datafile(2) = 'labsea_Lev.salt',
(PID.TID 0000.0001) ># gencost_errfile(2) = 'sigma_salt.bin',
(PID.TID 0000.0001) ># gencost_name(2) = 'salt',
(PID.TID 0000.0001) ># gencost_spmin(2) = 25.,
(PID.TID 0000.0001) ># gencost_spmax(2) = 40.,
(PID.TID 0000.0001) ># gencost_spzero(2) = 0.,
(PID.TID 0000.0001) ># gencost_outputlevel(2)=1,
(PID.TID 0000.0001) ># mult_gencost(2) = 1.,
(PID.TID 0000.0001) >#
(PID.TID 0000.0001) ># gencost_avgperiod(3) = 'month',
(PID.TID 0000.0001) ># gencost_barfile(3) = 'm_sst_month',
(PID.TID 0000.0001) > gencost_avgperiod(3) = 'step',
(PID.TID 0000.0001) > gencost_barfile(3) = 'm_sst_step',
(PID.TID 0000.0001) ># gencost_datafile(3) = 'labsea_SST_fields',
(PID.TID 0000.0001) > gencost_datafile(3) = 'labsea_SST_fields_t10',
(PID.TID 0000.0001) > gencost_errfile(3) = 'sigma_sst.bin',
(PID.TID 0000.0001) > gencost_name(3) = 'sst',
(PID.TID 0000.0001) > gencost_startdate1(3) = 19790101,
(PID.TID 0000.0001) > gencost_startdate2(3) = 00000,
(PID.TID 0000.0001) > gencost_spmin(3) = -1.8,
(PID.TID 0000.0001) > gencost_spmax(3) = 40.,
(PID.TID 0000.0001) > gencost_spzero(3) = -9999.0,
(PID.TID 0000.0001) ># gencost_spzero(3) = 0.,
(PID.TID 0000.0001) > gencost_outputlevel(3)=1,
(PID.TID 0000.0001) > mult_gencost(3) = 1.,
(PID.TID 0000.0001) >#
(PID.TID 0000.0001) ># gencost_avgperiod(4) = 'month',
(PID.TID 0000.0001) ># gencost_barfile(4) = 'm_eta_month',
(PID.TID 0000.0001) ># gencost_preproc(1,4) = 'mean',
(PID.TID 0000.0001) ># gencost_preproc(2,4) = 'offset',
(PID.TID 0000.0001) ># gencost_preproc(3,4) = 'mindepth',
(PID.TID 0000.0001) ># gencost_preproc_r(3,4) = -200.,
(PID.TID 0000.0001) ># gencost_datafile(4) = 'labsea_TP_mean_meters',
(PID.TID 0000.0001) ># gencost_errfile(4) = 'ones_64b.bin',
(PID.TID 0000.0001) ># gencost_name(4) = 'mdt',
(PID.TID 0000.0001) ># gencost_startdate1(4) = 19790101,
(PID.TID 0000.0001) ># gencost_startdate2(4) = 000000,
(PID.TID 0000.0001) ># gencost_spmin(4) = -4.,
(PID.TID 0000.0001) ># gencost_spmax(4) =  4.,
(PID.TID 0000.0001) ># gencost_spzero(4) = -9999.0,
(PID.TID 0000.0001) ># gencost_outputlevel(4)=5,
(PID.TID 0000.0001) ># mult_gencost(4) = 1.,
(PID.TID 0000.0001) > /
(PID.TID 0000.0001) 
(PID.TID 0000.0001) ECCO_READPARMS: finished reading #1: ecco_cost_nml
(PID.TID 0000.0001) ECCO_READPARMS: finished reading #2: ecco_gencost_nml
(PID.TID 0000.0001) ECCO_READPARMS: done
(PID.TID 0000.0001)  DIAGNOSTICS_READPARMS: opening data.diagnostics
(PID.TID 0000.0001)  OPEN_COPY_DATA_FILE: opening file data.diagnostics
(PID.TID 0000.0001) // =======================================================
(PID.TID 0000.0001) // Parameter file "data.diagnostics"
(PID.TID 0000.0001) // =======================================================
(PID.TID 0000.0001) ># Diagnostic Package Choices
(PID.TID 0000.0001) >#-----------------
(PID.TID 0000.0001) ># for each output-stream:
(PID.TID 0000.0001) >#  filename(n) : prefix of the output file name (only 8.c long) for outp.stream n
(PID.TID 0000.0001) >#  frequency(n):< 0 : write snap-shot output every multiple of |frequency| (iter)
(PID.TID 0000.0001) >#               > 0 : write time-average output every multiple of frequency (iter)
(PID.TID 0000.0001) >#  levels(:,n) : list of levels to write to file (Notes: declared as REAL)
(PID.TID 0000.0001) >#                 when this entry is missing, select all common levels of this list
(PID.TID 0000.0001) >#  fields(:,n) : list of diagnostics fields (8.c) (see "available_diagnostics" file
(PID.TID 0000.0001) >#                 for the list of all available diag. in this particular config)
(PID.TID 0000.0001) >#--------------------------------------------------------------------
(PID.TID 0000.0001) >#
(PID.TID 0000.0001) > &diagnostics_list
(PID.TID 0000.0001) >#
(PID.TID 0000.0001) >   dumpatlast = .TRUE.,
(PID.TID 0000.0001) >#####---------------------------------------------------------------
(PID.TID 0000.0001) >###---- standard diagnostics:
(PID.TID 0000.0001) >#######---
(PID.TID 0000.0001) >  frequency(11) = 3600.0,
(PID.TID 0000.0001) >   fields(1:16,11) = 'ETAN    ','SIarea  ','SIheff  ','SIhsnow ',
(PID.TID 0000.0001) >                 'DETADT2 ','PHIBOT  ','sIceLoad',
(PID.TID 0000.0001) >                 'MXLDEPTH',
(PID.TID 0000.0001) >                 'SIatmFW ','oceQnet ','oceFWflx',
(PID.TID 0000.0001) >                 'oceTAUX ','oceTAUY ',
(PID.TID 0000.0001) >                 'SIuice  ','SIvice  ','ETANSQ  ',
(PID.TID 0000.0001) >   filename(11) = 'diags/state_2d_set1',
(PID.TID 0000.0001) >###---
(PID.TID 0000.0001) >  frequency(12) = 3600.0,
(PID.TID 0000.0001) >   fields(1:2,12) = 'THETA   ','SALT    ',
(PID.TID 0000.0001) >   filename(12) = 'diags/state_3d_set1',
(PID.TID 0000.0001) >##---
(PID.TID 0000.0001) >  frequency(13) = 3600.0,
(PID.TID 0000.0001) >   fields(1:2,13) = 'UVELMASS','VVELMASS',
(PID.TID 0000.0001) >   filename(13) = 'diags/trsp_3d_set1',
(PID.TID 0000.0001) >##---
(PID.TID 0000.0001) >  frequency(16) = 3600.0,
(PID.TID 0000.0001) >   fields(1:18,16) ='EXFpreci','EXFevap ','EXFroff ','EXFempmr',
(PID.TID 0000.0001) >                 'EXFswdn ','EXFlwdn ','EXFswnet','EXFlwnet','EXFqnet ',
(PID.TID 0000.0001) >                 'EXFatemp','EXFaqh  ','EXFtaux ','EXFtauy ',
(PID.TID 0000.0001) >                 'EXFuwind','EXFvwind','EXFpress','EXFhs   ','EXFhl   ',
(PID.TID 0000.0001) >   filename(16) = 'diags/exf_zflux_set1',
(PID.TID 0000.0001) > /
(PID.TID 0000.0001) >#
(PID.TID 0000.0001) >#
(PID.TID 0000.0001) ># Parameter for Diagnostics of per level statistics:
(PID.TID 0000.0001) >#-----------------
(PID.TID 0000.0001) ># for each output-stream:
(PID.TID 0000.0001) >#  stat_fname(n) : prefix of the output file name (only 8.c long) for outp.stream n
(PID.TID 0000.0001) >#  stat_freq(n):< 0 : write snap-shot output every |stat_freq| seconds
(PID.TID 0000.0001) >#               > 0 : write time-average output every stat_freq seconds
(PID.TID 0000.0001) >#  stat_phase(n)    : write at time = stat_phase + multiple of |stat_freq|
(PID.TID 0000.0001) >#  stat_region(:,n) : list of "regions" (default: 1 region only=global)
(PID.TID 0000.0001) >#  stat_fields(:,n) : list of diagnostics fields (8.c) (see "available_diagnostics.log"
(PID.TID 0000.0001) >#                 file for the list of all available diag. in this particular config)
(PID.TID 0000.0001) >#-----------------
(PID.TID 0000.0001) > &DIAG_STATIS_PARMS
(PID.TID 0000.0001) ># diagSt_regMaskFile='basin_masks_eccollc_90x50.bin',
(PID.TID 0000.0001) ># nSetRegMskFile=1,
(PID.TID 0000.0001) ># set_regMask(1)= 1,  1,  1,  1,  1,  1,  1,  1,  1,
(PID.TID 0000.0001) >#                 1,  1,  1,  1,  1,  1,  1,  1
(PID.TID 0000.0001) ># val_regMask(1)= 1., 2., 3., 4., 5., 6., 7., 8., 9.,
(PID.TID 0000.0001) >#                10.,11.,12.,13.,14.,15.,16.,17.
(PID.TID 0000.0001) >##---
(PID.TID 0000.0001) ># stat_fields(1,1)= 'ETAN    ','ETANSQ  ','DETADT2 ',
(PID.TID 0000.0001) >#                   'UVEL    ','VVEL    ','WVEL    ',
(PID.TID 0000.0001) >#                   'THETA   ','SALT    ',
(PID.TID 0000.0001) >#    stat_fname(1)= 'dynStDiag',
(PID.TID 0000.0001) >#     stat_freq(1)= 3153600.,
(PID.TID 0000.0001) ># stat_region(1,1)=  1, 2, 3, 4, 5, 6, 7, 8, 9,
(PID.TID 0000.0001) >#                   10,11,12,13,14,15,16,17
(PID.TID 0000.0001) >##---
(PID.TID 0000.0001) ># stat_fields(1,2)= 'oceTAUX ','oceTAUY ',
(PID.TID 0000.0001) >#                   'surForcT','surForcS','TFLUX   ','SFLUX   ',
(PID.TID 0000.0001) >#                   'oceQnet ','oceSflux','oceFWflx',
(PID.TID 0000.0001) >#    stat_fname(2)= 'surfStDiag',
(PID.TID 0000.0001) >#     stat_freq(2)= 3153600.,
(PID.TID 0000.0001) ># stat_region(1,2)=  1, 2, 3, 4, 5, 6, 7, 8, 9,
(PID.TID 0000.0001) >#                   10,11,12,13,14,15,16,17
(PID.TID 0000.0001) > /
(PID.TID 0000.0001) 
(PID.TID 0000.0001) S/R DIAGNOSTICS_READPARMS, read namelist "diagnostics_list": start
(PID.TID 0000.0001) S/R DIAGNOSTICS_READPARMS, read namelist "diagnostics_list": OK
(PID.TID 0000.0001) S/R DIAGNOSTICS_READPARMS, read namelist "DIAG_STATIS_PARMS": start
(PID.TID 0000.0001) S/R DIAGNOSTICS_READPARMS, read namelist "DIAG_STATIS_PARMS": OK
(PID.TID 0000.0001)  DIAGNOSTICS_READPARMS: global parameter summary:
(PID.TID 0000.0001)  dumpAtLast = /* always write time-ave diags at the end */
(PID.TID 0000.0001)                   T
(PID.TID 0000.0001)     ;
(PID.TID 0000.0001)  diag_mnc =   /* write NetCDF output files */
(PID.TID 0000.0001)                   F
(PID.TID 0000.0001)     ;
(PID.TID 0000.0001)  useMissingValue = /* put MissingValue where mask = 0 */
(PID.TID 0000.0001)                   F
(PID.TID 0000.0001)     ;
(PID.TID 0000.0001)  diagCG_maxIters = /* max number of iters in diag_cg2d */
(PID.TID 0000.0001)                    1000
(PID.TID 0000.0001)     ;
(PID.TID 0000.0001)  diagCG_resTarget = /* residual target for diag_cg2d */
(PID.TID 0000.0001)                 1.000000000000000E-13
(PID.TID 0000.0001)     ;
(PID.TID 0000.0001)  diagCG_pcOffDFac = /* preconditioner off-diagonal factor */
(PID.TID 0000.0001)                 9.611687812379854E-01
(PID.TID 0000.0001)     ;
(PID.TID 0000.0001) -----------------------------------------------------
(PID.TID 0000.0001)  DIAGNOSTICS_READPARMS: active diagnostics summary:
(PID.TID 0000.0001) -----------------------------------------------------
(PID.TID 0000.0001) Creating Output Stream: diags/state_2d_set1
(PID.TID 0000.0001) Output Frequency:       3600.000000 ; Phase:           0.000000
(PID.TID 0000.0001)  Averaging Freq.:       3600.000000 , Phase:           0.000000 , Cycle:   1
(PID.TID 0000.0001)  missing value: -9.990000000000E+02
(PID.TID 0000.0001)  Levels:    will be set later
(PID.TID 0000.0001)  Fields:    ETAN     SIarea   SIheff   SIhsnow  DETADT2  PHIBOT   sIceLoad MXLDEPTH SIatmFW  oceQnet
(PID.TID 0000.0001)  Fields:    oceFWflx oceTAUX  oceTAUY  SIuice   SIvice   ETANSQ
(PID.TID 0000.0001) Creating Output Stream: diags/state_3d_set1
(PID.TID 0000.0001) Output Frequency:       3600.000000 ; Phase:           0.000000
(PID.TID 0000.0001)  Averaging Freq.:       3600.000000 , Phase:           0.000000 , Cycle:   1
(PID.TID 0000.0001)  missing value: -9.990000000000E+02
(PID.TID 0000.0001)  Levels:    will be set later
(PID.TID 0000.0001)  Fields:    THETA    SALT
(PID.TID 0000.0001) Creating Output Stream: diags/trsp_3d_set1
(PID.TID 0000.0001) Output Frequency:       3600.000000 ; Phase:           0.000000
(PID.TID 0000.0001)  Averaging Freq.:       3600.000000 , Phase:           0.000000 , Cycle:   1
(PID.TID 0000.0001)  missing value: -9.990000000000E+02
(PID.TID 0000.0001)  Levels:    will be set later
(PID.TID 0000.0001)  Fields:    UVELMASS VVELMASS
(PID.TID 0000.0001) Creating Output Stream: diags/exf_zflux_set1
(PID.TID 0000.0001) Output Frequency:       3600.000000 ; Phase:           0.000000
(PID.TID 0000.0001)  Averaging Freq.:       3600.000000 , Phase:           0.000000 , Cycle:   1
(PID.TID 0000.0001)  missing value: -9.990000000000E+02
(PID.TID 0000.0001)  Levels:    will be set later
(PID.TID 0000.0001)  Fields:    EXFpreci EXFevap  EXFroff  EXFempmr EXFswdn  EXFlwdn  EXFswnet EXFlwnet EXFqnet  EXFatemp
(PID.TID 0000.0001)  Fields:    EXFaqh   EXFtaux  EXFtauy  EXFuwind EXFvwind EXFpress EXFhs    EXFhl
(PID.TID 0000.0001) -----------------------------------------------------
(PID.TID 0000.0001)  DIAGNOSTICS_READPARMS: statistics diags. summary:
(PID.TID 0000.0001) -----------------------------------------------------
(PID.TID 0000.0001) 
(PID.TID 0000.0001) SET_PARMS: done
(PID.TID 0000.0001) Enter INI_VERTICAL_GRID: setInterFDr=    T ; setCenterDr=    F
(PID.TID 0000.0001) %MON XC_max                       =   3.1900000000000E+02
(PID.TID 0000.0001) %MON XC_min                       =   2.8100000000000E+02
(PID.TID 0000.0001) %MON XC_mean                      =   3.0000000000000E+02
(PID.TID 0000.0001) %MON XC_sd                        =   1.1532562594671E+01
(PID.TID 0000.0001) %MON XG_max                       =   3.1800000000000E+02
(PID.TID 0000.0001) %MON XG_min                       =   2.8000000000000E+02
(PID.TID 0000.0001) %MON XG_mean                      =   2.9900000000000E+02
(PID.TID 0000.0001) %MON XG_sd                        =   1.1532562594671E+01
(PID.TID 0000.0001) %MON DXC_max                      =   1.5166951523772E+05
(PID.TID 0000.0001) %MON DXC_min                      =   5.0026831972764E+04
(PID.TID 0000.0001) %MON DXC_mean                     =   1.0305926321463E+05
(PID.TID 0000.0001) %MON DXC_sd                       =   3.1375805318756E+04
(PID.TID 0000.0001) %MON DXF_max                      =   1.5166951523772E+05
(PID.TID 0000.0001) %MON DXF_min                      =   5.0026831972764E+04
(PID.TID 0000.0001) %MON DXF_mean                     =   1.0305926321463E+05
(PID.TID 0000.0001) %MON DXF_sd                       =   3.1375805318756E+04
(PID.TID 0000.0001) %MON DXG_max                      =   1.5448497309243E+05
(PID.TID 0000.0001) %MON DXG_min                      =   5.3800974869835E+04
(PID.TID 0000.0001) %MON DXG_mean                     =   1.0642630187324E+05
(PID.TID 0000.0001) %MON DXG_sd                       =   3.1081829200899E+04
(PID.TID 0000.0001) %MON DXV_max                      =   1.5448497309243E+05
(PID.TID 0000.0001) %MON DXV_min                      =   5.3800974869835E+04
(PID.TID 0000.0001) %MON DXV_mean                     =   1.0642630187324E+05
(PID.TID 0000.0001) %MON DXV_sd                       =   3.1081829200899E+04
(PID.TID 0000.0001) %MON YC_max                       =   7.7000000000000E+01
(PID.TID 0000.0001) %MON YC_min                       =   4.7000000000000E+01
(PID.TID 0000.0001) %MON YC_mean                      =   6.2000000000000E+01
(PID.TID 0000.0001) %MON YC_sd                        =   9.2195444572929E+00
(PID.TID 0000.0001) %MON YG_max                       =   7.6000000000000E+01
(PID.TID 0000.0001) %MON YG_min                       =   4.6000000000000E+01
(PID.TID 0000.0001) %MON YG_mean                      =   6.1000000000000E+01
(PID.TID 0000.0001) %MON YG_sd                        =   9.2195444572929E+00
(PID.TID 0000.0001) %MON DYC_max                      =   2.2238985328912E+05
(PID.TID 0000.0001) %MON DYC_min                      =   2.2238985328912E+05
(PID.TID 0000.0001) %MON DYC_mean                     =   2.2238985328912E+05
(PID.TID 0000.0001) %MON DYC_sd                       =   6.1118043959141E-10
(PID.TID 0000.0001) %MON DYF_max                      =   2.2238985328912E+05
(PID.TID 0000.0001) %MON DYF_min                      =   2.2238985328912E+05
(PID.TID 0000.0001) %MON DYF_mean                     =   2.2238985328912E+05
(PID.TID 0000.0001) %MON DYF_sd                       =   6.1118043959141E-10
(PID.TID 0000.0001) %MON DYG_max                      =   2.2238985328912E+05
(PID.TID 0000.0001) %MON DYG_min                      =   2.2238985328912E+05
(PID.TID 0000.0001) %MON DYG_mean                     =   2.2238985328912E+05
(PID.TID 0000.0001) %MON DYG_sd                       =   6.1118043959141E-10
(PID.TID 0000.0001) %MON DYU_max                      =   2.2238985328912E+05
(PID.TID 0000.0001) %MON DYU_min                      =   2.2238985328912E+05
(PID.TID 0000.0001) %MON DYU_mean                     =   2.2238985328912E+05
(PID.TID 0000.0001) %MON DYU_sd                       =   6.1118043959141E-10
(PID.TID 0000.0001) %MON RA_max                       =   3.3728048822756E+10
(PID.TID 0000.0001) %MON RA_min                       =   1.1124894996734E+10
(PID.TID 0000.0001) %MON RA_mean                      =   2.2918170839356E+10
(PID.TID 0000.0001) %MON RA_sd                        =   6.9773064942263E+09
(PID.TID 0000.0001) %MON RAW_max                      =   3.3728048822756E+10
(PID.TID 0000.0001) %MON RAW_min                      =   1.1124894996734E+10
(PID.TID 0000.0001) %MON RAW_mean                     =   2.2918170839356E+10
(PID.TID 0000.0001) %MON RAW_sd                       =   6.9773064942263E+09
(PID.TID 0000.0001) %MON RAS_max                      =   3.4354146294179E+10
(PID.TID 0000.0001) %MON RAS_min                      =   1.1964183470077E+10
(PID.TID 0000.0001) %MON RAS_mean                     =   2.3666928057229E+10
(PID.TID 0000.0001) %MON RAS_sd                       =   6.9119325076329E+09
(PID.TID 0000.0001) %MON RAZ_max                      =   3.4354146294179E+10
(PID.TID 0000.0001) %MON RAZ_min                      =   1.1964183470077E+10
(PID.TID 0000.0001) %MON RAZ_mean                     =   2.3666928057229E+10
(PID.TID 0000.0001) %MON RAZ_sd                       =   6.9119325076329E+09
(PID.TID 0000.0001) %MON AngleCS_max                  =   1.0000000000000E+00
(PID.TID 0000.0001) %MON AngleCS_min                  =   1.0000000000000E+00
(PID.TID 0000.0001) %MON AngleCS_mean                 =   1.0000000000000E+00
(PID.TID 0000.0001) %MON AngleCS_sd                   =   0.0000000000000E+00
(PID.TID 0000.0001) %MON AngleSN_max                  =   0.0000000000000E+00
(PID.TID 0000.0001) %MON AngleSN_min                  =   0.0000000000000E+00
(PID.TID 0000.0001) %MON AngleSN_mean                 =   0.0000000000000E+00
(PID.TID 0000.0001) %MON AngleSN_sd                   =   0.0000000000000E+00
(PID.TID 0000.0001)  MDS_WRITEVEC_LOC: open file: RhoRef.data
(PID.TID 0000.0001)  MDS_WR_REC_RL: iRec,Dim =         1         23
(PID.TID 0000.0001)  MDS_READ_FIELD: opening global file: bathy.labsea1979
(PID.TID 0000.0001) // =======================================================
(PID.TID 0000.0001) // Field Bottom depths (ini_depths)
(PID.TID 0000.0001) // CMIN =         -4.200000000000000E+03
(PID.TID 0000.0001) // CMAX =         -5.500000000000000E+01
(PID.TID 0000.0001) // CINT =          1.535185185185185E+02
(PID.TID 0000.0001) // SYMBOLS (CMIN->CMAX): -abcdefghijklmnopqrstuvwxyz+
(PID.TID 0000.0001) //                  0.0: .
(PID.TID 0000.0001) // RANGE I (Lo:Hi:Step):(    -3:    24:     1)
(PID.TID 0000.0001) // RANGE J (Lo:Hi:Step):(    20:    -3:    -1)
(PID.TID 0000.0001) // RANGE K (Lo:Hi:Step):(   1:   1:   1)
(PID.TID 0000.0001) // =======================================================
(PID.TID 0000.0001) K =   1
(PID.TID 0000.0001) //                I=6       I=16
(PID.TID 0000.0001) // |--J--|321012345|789012345|78901234
(PID.TID 0000.0001) //     20 cccg............zzmgcccg....
(PID.TID 0000.0001) //     19 gcc-..........+.zzxmgcc-....
(PID.TID 0000.0001) //     18 mjc-.......+zzz..zzsmjc-....
(PID.TID 0000.0001) //     17 wwc-........++z+++z+wwc-....
(PID.TID 0000.0001) //     16 .....zyyz................zyy
(PID.TID 0000.0001) //     15 ....yxwwuspxyxz.........yxww
(PID.TID 0000.0001) //     14 .....+wwspppsxzz.........+ww
(PID.TID 0000.0001) //     13 ........zwsppsyz............
(PID.TID 0000.0001) //     12 ..........+ypswzz+..........
(PID.TID 0000.0001) //     11 ............+wwy+...........
(PID.TID 0000.0001) //     10 ...........zzzywy+..........
(PID.TID 0000.0001) //      9 ...z.......+zxsmmm+....z....
(PID.TID 0000.0001) //      8 z..s.....zzzxumjjjjuz..s....
(PID.TID 0000.0001) //      7 jpmj......z.+zmjggggjpmj....
(PID.TID 0000.0001) //      6 gggg.........zxmjggggggg....
(PID.TID 0000.0001) //      5 gggg..........zzsjgggggg....
(PID.TID 0000.0001) //      4 cccg............zzmgcccg....
(PID.TID 0000.0001) //      3 gcc-..........+.zzxmgcc-....
(PID.TID 0000.0001) //      2 mjc-.......+zzz..zzsmjc-....
(PID.TID 0000.0001) //      1 wwc-........++z+++z+wwc-....
(PID.TID 0000.0001) //      0 .....zyyz................zyy
(PID.TID 0000.0001) //     -1 ....yxwwuspxyxz.........yxww
(PID.TID 0000.0001) //     -2 .....+wwspppsxzz.........+ww
(PID.TID 0000.0001) //     -3 ........zwsppsyz............
(PID.TID 0000.0001) // =======================================================
(PID.TID 0000.0001) // END OF FIELD                                          =
(PID.TID 0000.0001) // =======================================================
(PID.TID 0000.0001) 
(PID.TID 0000.0001) // =======================================================
(PID.TID 0000.0001) // Field Surface reference r-position (ini_depths)
(PID.TID 0000.0001) // CMIN =          1.000000000000000E+32
(PID.TID 0000.0001) // CMAX =         -1.000000000000000E+32
(PID.TID 0000.0001) // CINT =          0.000000000000000E+00
(PID.TID 0000.0001) // SYMBOLS (CMIN->CMAX): -abcdefghijklmnopqrstuvwxyz+
(PID.TID 0000.0001) //                  0.0: .
(PID.TID 0000.0001) // RANGE I (Lo:Hi:Step):(    -3:    24:     1)
(PID.TID 0000.0001) // RANGE J (Lo:Hi:Step):(    20:    -3:    -1)
(PID.TID 0000.0001) // RANGE K (Lo:Hi:Step):(   1:   1:   1)
(PID.TID 0000.0001) // =======================================================
(PID.TID 0000.0001) // =======================================================
(PID.TID 0000.0001) // END OF FIELD                                          =
(PID.TID 0000.0001) // =======================================================
(PID.TID 0000.0001) 
(PID.TID 0000.0001) // =======================================================
(PID.TID 0000.0001) // Field Model R_low (ini_masks_etc)
(PID.TID 0000.0001) // CMIN =         -4.200000000000000E+03
(PID.TID 0000.0001) // CMAX =         -5.500000000000000E+01
(PID.TID 0000.0001) // CINT =          1.535185185185185E+02
(PID.TID 0000.0001) // SYMBOLS (CMIN->CMAX): -abcdefghijklmnopqrstuvwxyz+
(PID.TID 0000.0001) //                  0.0: .
(PID.TID 0000.0001) // RANGE I (Lo:Hi:Step):(    -3:    24:     1)
(PID.TID 0000.0001) // RANGE J (Lo:Hi:Step):(    20:    -3:    -1)
(PID.TID 0000.0001) // RANGE K (Lo:Hi:Step):(   1:   1:   1)
(PID.TID 0000.0001) // =======================================================
(PID.TID 0000.0001) K =   1
(PID.TID 0000.0001) //                I=6       I=16
(PID.TID 0000.0001) // |--J--|321012345|789012345|78901234
(PID.TID 0000.0001) //     20 cccg............zzmgcccg....
(PID.TID 0000.0001) //     19 gcc-..........+.zzxmgcc-....
(PID.TID 0000.0001) //     18 mjc-.......+zzz..zzsmjc-....
(PID.TID 0000.0001) //     17 wwc-........++z+++z+wwc-....
(PID.TID 0000.0001) //     16 .....zyyz................zyy
(PID.TID 0000.0001) //     15 ....yxwwuspxyxz.........yxww
(PID.TID 0000.0001) //     14 .....+wwspppsxzz.........+ww
(PID.TID 0000.0001) //     13 ........zwsppsyz............
(PID.TID 0000.0001) //     12 ..........+ypswzz+..........
(PID.TID 0000.0001) //     11 ............+wwy+...........
(PID.TID 0000.0001) //     10 ...........zzzywy+..........
(PID.TID 0000.0001) //      9 ...z.......+zxsmmm+....z....
(PID.TID 0000.0001) //      8 z..s.....zzzxumjjjjuz..s....
(PID.TID 0000.0001) //      7 jpmj......z.+zmjggggjpmj....
(PID.TID 0000.0001) //      6 gggg.........zxmjggggggg....
(PID.TID 0000.0001) //      5 gggg..........zzsjgggggg....
(PID.TID 0000.0001) //      4 cccg............zzmgcccg....
(PID.TID 0000.0001) //      3 gcc-..........+.zzxmgcc-....
(PID.TID 0000.0001) //      2 mjc-.......+zzz..zzsmjc-....
(PID.TID 0000.0001) //      1 wwc-........++z+++z+wwc-....
(PID.TID 0000.0001) //      0 .....zyyz................zyy
(PID.TID 0000.0001) //     -1 ....yxwwuspxyxz.........yxww
(PID.TID 0000.0001) //     -2 .....+wwspppsxzz.........+ww
(PID.TID 0000.0001) //     -3 ........zwsppsyz............
(PID.TID 0000.0001) // =======================================================
(PID.TID 0000.0001) // END OF FIELD                                          =
(PID.TID 0000.0001) // =======================================================
(PID.TID 0000.0001) 
(PID.TID 0000.0001) // =======================================================
(PID.TID 0000.0001) // Field Model Ro_surf (ini_masks_etc)
(PID.TID 0000.0001) // CMIN =          1.000000000000000E+32
(PID.TID 0000.0001) // CMAX =         -1.000000000000000E+32
(PID.TID 0000.0001) // CINT =          0.000000000000000E+00
(PID.TID 0000.0001) // SYMBOLS (CMIN->CMAX): -abcdefghijklmnopqrstuvwxyz+
(PID.TID 0000.0001) //                  0.0: .
(PID.TID 0000.0001) // RANGE I (Lo:Hi:Step):(    -3:    24:     1)
(PID.TID 0000.0001) // RANGE J (Lo:Hi:Step):(    20:    -3:    -1)
(PID.TID 0000.0001) // RANGE K (Lo:Hi:Step):(   1:   1:   1)
(PID.TID 0000.0001) // =======================================================
(PID.TID 0000.0001) // =======================================================
(PID.TID 0000.0001) // END OF FIELD                                          =
(PID.TID 0000.0001) // =======================================================
(PID.TID 0000.0001) 
(PID.TID 0000.0001) // =======================================================
(PID.TID 0000.0001) // Field hFacC at iteration          0
(PID.TID 0000.0001) // CMIN =          1.000000000000000E+00
(PID.TID 0000.0001) // CMAX =          1.000000000000000E+00
(PID.TID 0000.0001) // CINT =          0.000000000000000E+00
(PID.TID 0000.0001) // SYMBOLS (CMIN->CMAX): -abcdefghijklmnopqrstuvwxyz+
(PID.TID 0000.0001) //                  0.0: .
(PID.TID 0000.0001) // RANGE I (Lo:Hi:Step):(    -3:    24:     1)
(PID.TID 0000.0001) // RANGE J (Lo:Hi:Step):(    20:    -3:    -1)
(PID.TID 0000.0001) // RANGE K (Lo:Hi:Step):(   1:   1:   1)
(PID.TID 0000.0001) // =======================================================
(PID.TID 0000.0001) // =======================================================
(PID.TID 0000.0001) // END OF FIELD                                          =
(PID.TID 0000.0001) // =======================================================
(PID.TID 0000.0001) 
(PID.TID 0000.0001) // =======================================================
(PID.TID 0000.0001) // Field hFacW at iteration          0
(PID.TID 0000.0001) // CMIN =          1.000000000000000E+00
(PID.TID 0000.0001) // CMAX =          1.000000000000000E+00
(PID.TID 0000.0001) // CINT =          0.000000000000000E+00
(PID.TID 0000.0001) // SYMBOLS (CMIN->CMAX): -abcdefghijklmnopqrstuvwxyz+
(PID.TID 0000.0001) //                  0.0: .
(PID.TID 0000.0001) // RANGE I (Lo:Hi:Step):(    -3:    24:     1)
(PID.TID 0000.0001) // RANGE J (Lo:Hi:Step):(    20:    -3:    -1)
(PID.TID 0000.0001) // RANGE K (Lo:Hi:Step):(   1:   1:   1)
(PID.TID 0000.0001) // =======================================================
(PID.TID 0000.0001) // =======================================================
(PID.TID 0000.0001) // END OF FIELD                                          =
(PID.TID 0000.0001) // =======================================================
(PID.TID 0000.0001) 
(PID.TID 0000.0001) // =======================================================
(PID.TID 0000.0001) // Field hFacS at iteration          0
(PID.TID 0000.0001) // CMIN =          1.000000000000000E+00
(PID.TID 0000.0001) // CMAX =          1.000000000000000E+00
(PID.TID 0000.0001) // CINT =          0.000000000000000E+00
(PID.TID 0000.0001) // SYMBOLS (CMIN->CMAX): -abcdefghijklmnopqrstuvwxyz+
(PID.TID 0000.0001) //                  0.0: .
(PID.TID 0000.0001) // RANGE I (Lo:Hi:Step):(    -3:    24:     1)
(PID.TID 0000.0001) // RANGE J (Lo:Hi:Step):(    20:    -3:    -1)
(PID.TID 0000.0001) // RANGE K (Lo:Hi:Step):(   1:   1:   1)
(PID.TID 0000.0001) // =======================================================
(PID.TID 0000.0001) // =======================================================
(PID.TID 0000.0001) // END OF FIELD                                          =
(PID.TID 0000.0001) // =======================================================
(PID.TID 0000.0001) 
(PID.TID 0000.0001) 
(PID.TID 0000.0001) // =======================================================
(PID.TID 0000.0001) // Calendar configuration >>> START <<<
(PID.TID 0000.0001) // =======================================================
(PID.TID 0000.0001) 
(PID.TID 0000.0001) modelstart = /* Start time of the model integration [s] */
(PID.TID 0000.0001)                 0.000000000000000E+00
(PID.TID 0000.0001)     ;
(PID.TID 0000.0001) modelend  = /* End time of the model integration [s] */
(PID.TID 0000.0001)                 3.240000000000000E+04
(PID.TID 0000.0001)     ;
(PID.TID 0000.0001) modelStep = /* Time interval for a model forward step [s] */
(PID.TID 0000.0001)                 3.600000000000000E+03
(PID.TID 0000.0001)     ;
(PID.TID 0000.0001) usingGregorianCalendar= /* Calendar Type: Gregorian Calendar */
(PID.TID 0000.0001)                   T
(PID.TID 0000.0001)     ;
(PID.TID 0000.0001) usingJulianCalendar = /* Calendar Type: Julian Calendar */
(PID.TID 0000.0001)                   F
(PID.TID 0000.0001)     ;
(PID.TID 0000.0001) usingNoLeapYearCal  = /* Calendar Type: without Leap Year */
(PID.TID 0000.0001)                   F
(PID.TID 0000.0001)     ;
(PID.TID 0000.0001) usingModelCalendar  = /* Calendar Type: Model Calendar */
(PID.TID 0000.0001)                   F
(PID.TID 0000.0001)     ;
(PID.TID 0000.0001) modelStartDate YYYYMMDD = /* Model start date YYYY-MM-DD */
(PID.TID 0000.0001)                19790101
(PID.TID 0000.0001)     ;
(PID.TID 0000.0001)   modelStartDate HHMMSS = /* Model start date HH-MM-SS  */
(PID.TID 0000.0001)                       0
(PID.TID 0000.0001)     ;
(PID.TID 0000.0001) modelEndDate   YYYYMMDD = /* Model end date YYYY-MM-DD */
(PID.TID 0000.0001)                19790101
(PID.TID 0000.0001)     ;
(PID.TID 0000.0001)   modelEndDate   HHMMSS = /* Model end date HH-MM-SS  */
(PID.TID 0000.0001)                   90000
(PID.TID 0000.0001)     ;
(PID.TID 0000.0001) intyears = /* Number of calendar years affected by the integration */
(PID.TID 0000.0001)                       1
(PID.TID 0000.0001)     ;
(PID.TID 0000.0001) intmonths= /* Number of calendar months affected by the integration */
(PID.TID 0000.0001)                       1
(PID.TID 0000.0001)     ;
(PID.TID 0000.0001) intdays = /* Number of calendar days affected by the integration */
(PID.TID 0000.0001)                       1
(PID.TID 0000.0001)     ;
(PID.TID 0000.0001) modelIter0 = /* Base timestep number  */
(PID.TID 0000.0001)                       0
(PID.TID 0000.0001)     ;
(PID.TID 0000.0001) modelIterEnd = /* Final timestep number  */
(PID.TID 0000.0001)                       9
(PID.TID 0000.0001)     ;
(PID.TID 0000.0001) modelIntSteps= /* Number of model timesteps  */
(PID.TID 0000.0001)                       9
(PID.TID 0000.0001)     ;
(PID.TID 0000.0001) 
(PID.TID 0000.0001) // =======================================================
(PID.TID 0000.0001) // Calendar configuration  >>> END <<<
(PID.TID 0000.0001) // =======================================================
(PID.TID 0000.0001) 
(PID.TID 0000.0001) GAD_INIT_FIXED: GAD_OlMinSize=  2  0  1
(PID.TID 0000.0001) 
(PID.TID 0000.0001) // ===================================
(PID.TID 0000.0001) // GAD parameters :
(PID.TID 0000.0001) // ===================================
(PID.TID 0000.0001) tempAdvScheme =   /* Temp. Horiz.Advection scheme selector */
(PID.TID 0000.0001)                      30
(PID.TID 0000.0001)     ;
(PID.TID 0000.0001) tempVertAdvScheme =   /* Temp. Vert. Advection scheme selector */
(PID.TID 0000.0001)                      30
(PID.TID 0000.0001)     ;
(PID.TID 0000.0001) tempMultiDimAdvec =   /* use Muti-Dim Advec method for Temp */
(PID.TID 0000.0001)                   T
(PID.TID 0000.0001)     ;
(PID.TID 0000.0001) tempSOM_Advection = /* use 2nd Order Moment Advection for Temp */
(PID.TID 0000.0001)                   F
(PID.TID 0000.0001)     ;
(PID.TID 0000.0001) AdamsBashforthGt = /* apply Adams-Bashforth extrapolation on Gt */
(PID.TID 0000.0001)                   F
(PID.TID 0000.0001)     ;
(PID.TID 0000.0001) AdamsBashforth_T = /* apply Adams-Bashforth extrapolation on Temp */
(PID.TID 0000.0001)                   F
(PID.TID 0000.0001)     ;
(PID.TID 0000.0001) saltAdvScheme =   /* Salt. Horiz.advection scheme selector */
(PID.TID 0000.0001)                      30
(PID.TID 0000.0001)     ;
(PID.TID 0000.0001) saltVertAdvScheme =   /* Salt. Vert. Advection scheme selector */
(PID.TID 0000.0001)                      30
(PID.TID 0000.0001)     ;
(PID.TID 0000.0001) saltMultiDimAdvec =   /* use Muti-Dim Advec method for Salt */
(PID.TID 0000.0001)                   T
(PID.TID 0000.0001)     ;
(PID.TID 0000.0001) saltSOM_Advection = /* use 2nd Order Moment Advection for Salt */
(PID.TID 0000.0001)                   F
(PID.TID 0000.0001)     ;
(PID.TID 0000.0001) AdamsBashforthGs = /* apply Adams-Bashforth extrapolation on Gs */
(PID.TID 0000.0001)                   F
(PID.TID 0000.0001)     ;
(PID.TID 0000.0001) AdamsBashforth_S = /* apply Adams-Bashforth extrapolation on Salt */
(PID.TID 0000.0001)                   F
(PID.TID 0000.0001)     ;
(PID.TID 0000.0001) // ===================================
(PID.TID 0000.0001) 
(PID.TID 0000.0001) // =======================================================
(PID.TID 0000.0001) // External forcing (EXF) configuration >>> START <<<
(PID.TID 0000.0001) // =======================================================
(PID.TID 0000.0001) 
(PID.TID 0000.0001)  EXF general parameters:
(PID.TID 0000.0001) 
(PID.TID 0000.0001) exf_iprec = /* exf file precision */
(PID.TID 0000.0001)                      32
(PID.TID 0000.0001)     ;
(PID.TID 0000.0001) useExfYearlyFields = /* add extension _YEAR to input file names */
(PID.TID 0000.0001)                   F
(PID.TID 0000.0001)     ;
(PID.TID 0000.0001) twoDigitYear = /* use 2-digit year extension */
(PID.TID 0000.0001)                   F
(PID.TID 0000.0001)     ;
(PID.TID 0000.0001) useExfCheckRange = /* check for fields range */
(PID.TID 0000.0001)                   T
(PID.TID 0000.0001)     ;
(PID.TID 0000.0001) diags_opOceWeighted = /* weight flux diags by open-ocean fraction */
(PID.TID 0000.0001)                   T
(PID.TID 0000.0001)     ;
(PID.TID 0000.0001) exf_debugLev = /* select EXF-debug printing level */
(PID.TID 0000.0001)                       4
(PID.TID 0000.0001)     ;
(PID.TID 0000.0001) exf_monFreq  = /* EXF monitor frequency [ s ] */
(PID.TID 0000.0001)                 1.000000000000000E+00
(PID.TID 0000.0001)     ;
(PID.TID 0000.0001) exf_adjMonSelect = /* select group of exf AD-variables to monitor */
(PID.TID 0000.0001)                       3
(PID.TID 0000.0001)     ;
(PID.TID 0000.0001) repeatPeriod = /* period for cycling forcing dataset [ s ] */
(PID.TID 0000.0001)                 3.162240000000000E+07
(PID.TID 0000.0001)     ;
(PID.TID 0000.0001) climTempFreeze= /* Minimum climatological temperature [deg.C] */
(PID.TID 0000.0001)                -1.900000000000000E+00
(PID.TID 0000.0001)     ;
(PID.TID 0000.0001) windStressMax = /* Maximum absolute windstress [ Pa ] */
(PID.TID 0000.0001)                 2.000000000000000E+00
(PID.TID 0000.0001)     ;
(PID.TID 0000.0001) stressIsOnCgrid = /* set u,v_stress on Arakawa C-grid */
(PID.TID 0000.0001)                   F
(PID.TID 0000.0001)     ;
(PID.TID 0000.0001) rotateStressOnAgrid = /* rotate u,v_stress on Arakawa A-grid */
(PID.TID 0000.0001)                   F
(PID.TID 0000.0001)     ;
(PID.TID 0000.0001) cen2kel = /* conversion of deg. Centigrade to Kelvin [K] */
(PID.TID 0000.0001)                 2.731500000000000E+02
(PID.TID 0000.0001)     ;
(PID.TID 0000.0001) gravity_mks= /* gravitational acceleration [m/s^2] */
(PID.TID 0000.0001)                 9.810000000000000E+00
(PID.TID 0000.0001)     ;
(PID.TID 0000.0001) atmrho =  /* mean atmospheric density [kg/m^3] */
(PID.TID 0000.0001)                 1.200000000000000E+00
(PID.TID 0000.0001)     ;
(PID.TID 0000.0001) atmcp =  /* mean atmospheric specific heat [J/kg/K] */
(PID.TID 0000.0001)                 1.005000000000000E+03
(PID.TID 0000.0001)     ;
(PID.TID 0000.0001) flamb =  /* latent heat of evaporation [J/kg] */
(PID.TID 0000.0001)                 2.500000000000000E+06
(PID.TID 0000.0001)     ;
(PID.TID 0000.0001) flami =  /* latent heat of pure-ice melting [J/kg] */
(PID.TID 0000.0001)                 3.340000000000000E+05
(PID.TID 0000.0001)     ;
(PID.TID 0000.0001) cvapor_fac = /* const. for Saturation calculation [?] */
(PID.TID 0000.0001)                 6.403800000000000E+05
(PID.TID 0000.0001)     ;
(PID.TID 0000.0001) cvapor_exp = /* const. for Saturation calculation [?] */
(PID.TID 0000.0001)                 5.107400000000000E+03
(PID.TID 0000.0001)     ;
(PID.TID 0000.0001) cvapor_fac_ice= /* const. for Saturation calculation [?] */
(PID.TID 0000.0001)                 1.163780000000000E+07
(PID.TID 0000.0001)     ;
(PID.TID 0000.0001) cvapor_exp_ice= /* const. for Saturation calculation [?] */
(PID.TID 0000.0001)                 5.897800000000000E+03
(PID.TID 0000.0001)     ;
(PID.TID 0000.0001) humid_fac = /* humidity coef. in virtual temp. [(kg/kg)^-1] */
(PID.TID 0000.0001)                 6.060000000000000E-01
(PID.TID 0000.0001)     ;
(PID.TID 0000.0001) gamma_blk = /* adiabatic lapse rate [?] */
(PID.TID 0000.0001)                 1.000000000000000E-02
(PID.TID 0000.0001)     ;
(PID.TID 0000.0001) saltsat = /* reduction of Qsat over salty water [-] */
(PID.TID 0000.0001)                 9.800000000000000E-01
(PID.TID 0000.0001)     ;
(PID.TID 0000.0001) noNegativeEvap = /* prevent negative Evaporation */
(PID.TID 0000.0001)                   F
(PID.TID 0000.0001)     ;
(PID.TID 0000.0001) sstExtrapol = /* extrapolation coeff from lev. 1 & 2 to surf [-] */
(PID.TID 0000.0001)                 0.000000000000000E+00
(PID.TID 0000.0001)     ;
(PID.TID 0000.0001) cDrag_1 = /* coef used in drag calculation [m/s] */
(PID.TID 0000.0001)                 2.700000000000000E-03
(PID.TID 0000.0001)     ;
(PID.TID 0000.0001) cDrag_2 = /* coef used in drag calculation [-] */
(PID.TID 0000.0001)                 1.420000000000000E-04
(PID.TID 0000.0001)     ;
(PID.TID 0000.0001) cDrag_3 = /* coef used in drag calculation [s/m] */
(PID.TID 0000.0001)                 7.640000000000000E-05
(PID.TID 0000.0001)     ;
(PID.TID 0000.0001) cDrag_8 = /* coef used in drag calculation [(s/m)^6] */
(PID.TID 0000.0001)                 1.234567000000000E+05
(PID.TID 0000.0001)     ;
(PID.TID 0000.0001) cDragMax = /* maximum drag (Large and Yeager, 2009) [-] */
(PID.TID 0000.0001)                 1.234567000000000E+05
(PID.TID 0000.0001)     ;
(PID.TID 0000.0001) umax = /* at maximum wind (Large and Yeager, 2009) [m/s] */
(PID.TID 0000.0001)                 1.234567000000000E+05
(PID.TID 0000.0001)     ;
(PID.TID 0000.0001) cStanton_1 = /* coef used in Stanton number calculation [-] */
(PID.TID 0000.0001)                 3.270000000000000E-02
(PID.TID 0000.0001)     ;
(PID.TID 0000.0001) cStanton_2 = /* coef used in Stanton number calculation [-] */
(PID.TID 0000.0001)                 1.800000000000000E-02
(PID.TID 0000.0001)     ;
(PID.TID 0000.0001) cDalton = /* Dalton number [-] */
(PID.TID 0000.0001)                 3.460000000000000E-02
(PID.TID 0000.0001)     ;
(PID.TID 0000.0001) exf_scal_BulkCdn= /* Drag coefficient scaling factor [-] */
(PID.TID 0000.0001)                 1.000000000000000E+00
(PID.TID 0000.0001)     ;
(PID.TID 0000.0001) zolmin = /* minimum stability parameter [?] */
(PID.TID 0000.0001)                -1.000000000000000E+02
(PID.TID 0000.0001)     ;
(PID.TID 0000.0001) psim_fac = /* coef used in turbulent fluxes calculation [-] */
(PID.TID 0000.0001)                 5.000000000000000E+00
(PID.TID 0000.0001)     ;
(PID.TID 0000.0001) zref =  /* reference height [ m ] */
(PID.TID 0000.0001)                 1.000000000000000E+01
(PID.TID 0000.0001)     ;
(PID.TID 0000.0001) hu =  /* height of mean wind [ m ] */
(PID.TID 0000.0001)                 1.000000000000000E+01
(PID.TID 0000.0001)     ;
(PID.TID 0000.0001) ht =  /* height of mean temperature [ m ] */
(PID.TID 0000.0001)                 2.000000000000000E+00
(PID.TID 0000.0001)     ;
(PID.TID 0000.0001) hq =  /* height of mean spec.humidity [ m ] */
(PID.TID 0000.0001)                 2.000000000000000E+00
(PID.TID 0000.0001)     ;
(PID.TID 0000.0001) uMin = /* minimum wind speed [m/s] */
(PID.TID 0000.0001)                 5.000000000000000E-01
(PID.TID 0000.0001)     ;
(PID.TID 0000.0001) useStabilityFct_overIce= /* transfert Coeffs over sea-ice depend on stability */
(PID.TID 0000.0001)                   F
(PID.TID 0000.0001)     ;
(PID.TID 0000.0001) exf_iceCd = /* drag coefficient over sea-ice (fixed) [-] */
(PID.TID 0000.0001)                 1.630000000000000E-03
(PID.TID 0000.0001)     ;
(PID.TID 0000.0001) exf_iceCe = /* transfert coeff. over sea-ice, for Evap (fixed) [-] */
(PID.TID 0000.0001)                 1.630000000000000E-03
(PID.TID 0000.0001)     ;
(PID.TID 0000.0001) exf_iceCh = /* transfert coeff. over sea-ice, Sens.Heat.(fixed)[-] */
(PID.TID 0000.0001)                 1.630000000000000E-03
(PID.TID 0000.0001)     ;
(PID.TID 0000.0001) exf_albedo =  /* Sea-water albedo [-] */
(PID.TID 0000.0001)                 1.000000000000000E-01
(PID.TID 0000.0001)     ;
(PID.TID 0000.0001) useExfZenAlbedo = /* Sea-water albedo varies with zenith angle */
(PID.TID 0000.0001)                   F
(PID.TID 0000.0001)     ;
(PID.TID 0000.0001) select_ZenAlbedo = /* Sea-water albedo computation method */
(PID.TID 0000.0001)                       0
(PID.TID 0000.0001)     ;
(PID.TID 0000.0001) useExfZenIncoming = /* compute incoming solar radiation */
(PID.TID 0000.0001)                   F
(PID.TID 0000.0001)     ;
(PID.TID 0000.0001) ocean_emissivity = /* longwave ocean-surface emissivity [-] */
(PID.TID 0000.0001)                 9.700176366843034E-01
(PID.TID 0000.0001)     ;
(PID.TID 0000.0001) ice_emissivity = /* longwave seaice emissivity [-] */
(PID.TID 0000.0001)                 9.500000000000000E-01
(PID.TID 0000.0001)     ;
(PID.TID 0000.0001) snow_emissivity = /* longwave snow  emissivity [-] */
(PID.TID 0000.0001)                 9.500000000000000E-01
(PID.TID 0000.0001)     ;
(PID.TID 0000.0001) 
(PID.TID 0000.0001)  EXF main CPP flags:
(PID.TID 0000.0001) 
(PID.TID 0000.0001) // USE_EXF_INTERPOLATION:          NOT defined
(PID.TID 0000.0001) // ALLOW_ATM_TEMP:                     defined
(PID.TID 0000.0001) // ALLOW_ATM_WIND (useAtmWind):        defined
(PID.TID 0000.0001) // ALLOW_DOWNWARD_RADIATION:           defined
(PID.TID 0000.0001) // ALLOW_BULKFORMULAE:                 defined
(PID.TID 0000.0001) 
(PID.TID 0000.0001)    Zonal wind forcing starts at                   -1317600.
(PID.TID 0000.0001)    Zonal wind forcing period is                    2635200.
(PID.TID 0000.0001)    Zonal wind forcing repeat-cycle is             31622400.
(PID.TID 0000.0001)    Zonal wind forcing is read from file:
(PID.TID 0000.0001)    >> u10m.labsea1979 <<
(PID.TID 0000.0001) 
(PID.TID 0000.0001)    Meridional wind forcing starts at              -1317600.
(PID.TID 0000.0001)    Meridional wind forcing period is               2635200.
(PID.TID 0000.0001)    Meridional wind forcing repeat-cycle is        31622400.
(PID.TID 0000.0001)    Meridional wind forcing is read from file:
(PID.TID 0000.0001)    >> v10m.labsea1979 <<
(PID.TID 0000.0001) 
(PID.TID 0000.0001)    Atmospheric temperature starts at              -1317600.
(PID.TID 0000.0001)    Atmospheric temperature period is               2635200.
(PID.TID 0000.0001)    Atmospheric temperature repeat-cycle is        31622400.
(PID.TID 0000.0001)    Atmospheric temperature is read from file:
(PID.TID 0000.0001)    >> tair.labsea1979 <<
(PID.TID 0000.0001) 
(PID.TID 0000.0001)    Atmospheric specific humidity starts at        -1317600.
(PID.TID 0000.0001)    Atmospheric specific humidity period is         2635200.
(PID.TID 0000.0001)    Atmospheric specific humidity rep-cycle is     31622400.
(PID.TID 0000.0001)    Atmospheric specific humidity is read from file:
(PID.TID 0000.0001)    >> qa.labsea1979 <<
(PID.TID 0000.0001) 
(PID.TID 0000.0001) // ALLOW_READ_TURBFLUXES:          NOT defined
(PID.TID 0000.0001) // EXF_READ_EVAP:                  NOT defined
(PID.TID 0000.0001) 
(PID.TID 0000.0001)    Precipitation data starts at                   -1317600.
(PID.TID 0000.0001)    Precipitation data period is                    2635200.
(PID.TID 0000.0001)    Precipitation data repeat-cycle is             31622400.
(PID.TID 0000.0001)    Precipitation data is read from file:
(PID.TID 0000.0001)    >> prate.labsea1979 <<
(PID.TID 0000.0001) 
(PID.TID 0000.0001) // ALLOW_RUNOFF:                       defined
(PID.TID 0000.0001) // ALLOW_RUNOFTEMP:                NOT defined
(PID.TID 0000.0001) // ALLOW_SALTFLX:                      defined
(PID.TID 0000.0001) 
(PID.TID 0000.0001)    Downward shortwave flux starts at              -1317600.
(PID.TID 0000.0001)    Downward shortwave flux period is               2635200.
(PID.TID 0000.0001)    Downward shortwave flux repeat-cycle is        31622400.
(PID.TID 0000.0001)    Downward shortwave flux is read from file:
(PID.TID 0000.0001)    >> fsh.labsea1979 <<
(PID.TID 0000.0001) 
(PID.TID 0000.0001)    Downward longwave flux starts at               -1317600.
(PID.TID 0000.0001)    Downward longwave flux period is                2635200.
(PID.TID 0000.0001)    Downward longwave flux repeat-cycle is         31622400.
(PID.TID 0000.0001)    Downward longwave flux is read from file:
(PID.TID 0000.0001)    >> flo.labsea1979 <<
(PID.TID 0000.0001) 
(PID.TID 0000.0001) // =======================================================
(PID.TID 0000.0001) // External forcing (EXF) climatology configuration :
(PID.TID 0000.0001) // =======================================================
(PID.TID 0000.0001) 
(PID.TID 0000.0001) // ALLOW_CLIMSST_RELAXATION:           defined
(PID.TID 0000.0001)    climsst relaxation is NOT used
(PID.TID 0000.0001) 
(PID.TID 0000.0001) // ALLOW_CLIMSSS_RELAXATION:           defined
(PID.TID 0000.0001)    Climatological SSS starts at                   -1317600.
(PID.TID 0000.0001)    Climatological SSS period is                    2635200.
(PID.TID 0000.0001)    Climatological SSS repeat-cycle is             31622400.
(PID.TID 0000.0001)    Climatological SSS is read from file:
(PID.TID 0000.0001)    >> SSS_monthly.labsea1979 <<
(PID.TID 0000.0001) 
(PID.TID 0000.0001) // =======================================================
(PID.TID 0000.0001) // External forcing (EXF) configuration  >>> END <<<
(PID.TID 0000.0001) // =======================================================
(PID.TID 0000.0001) 
(PID.TID 0000.0001) DWNSLP_INIT: DWNSLP_NbSite=   1   1     182
(PID.TID 0000.0001) etaday defined by gencost   0
(PID.TID 0000.0001)  MDS_WRITE_FIELD: it,rec,kS,kL,kH=       1     1   1   1   1 file=adsmrareabar.0000000001
(PID.TID 0000.0001)  MDS_WRITE_FIELD: it,rec,kS,kL,kH=       1     1   1   1   1 file=adsmrsstbar.0000000001
(PID.TID 0000.0001)  MDS_WRITE_FIELD: it,rec,kS,kL,kH=       1     1   1   1   1 file=adsmrsssbar.0000000001
(PID.TID 0000.0001)  MDS_WRITE_FIELD: it,rec,kS,kL,kH=       1     1   1   1   1 file=adm_sst_step.0000000001
(PID.TID 0000.0001)  MDS_WRITE_FIELD: it,rec,kS,kL,kH=       1     2   1   1   1 file=adm_sst_step.0000000001
(PID.TID 0000.0001)  MDS_WRITE_FIELD: it,rec,kS,kL,kH=       1     3   1   1   1 file=adm_sst_step.0000000001
(PID.TID 0000.0001)  MDS_WRITE_FIELD: it,rec,kS,kL,kH=       1     4   1   1   1 file=adm_sst_step.0000000001
(PID.TID 0000.0001)  MDS_WRITE_FIELD: it,rec,kS,kL,kH=       1     5   1   1   1 file=adm_sst_step.0000000001
(PID.TID 0000.0001)  MDS_WRITE_FIELD: it,rec,kS,kL,kH=       1     6   1   1   1 file=adm_sst_step.0000000001
(PID.TID 0000.0001)  MDS_WRITE_FIELD: it,rec,kS,kL,kH=       1     7   1   1   1 file=adm_sst_step.0000000001
(PID.TID 0000.0001)  MDS_WRITE_FIELD: it,rec,kS,kL,kH=       1     8   1   1   1 file=adm_sst_step.0000000001
(PID.TID 0000.0001)  MDS_WRITE_FIELD: it,rec,kS,kL,kH=       1     9   1   1   1 file=adm_sst_step.0000000001
(PID.TID 0000.0001)  MDS_WRITE_FIELD: it,rec,kS,kL,kH=       1    10   1   1   1 file=adm_sst_step.0000000001
(PID.TID 0000.0001) 
(PID.TID 0000.0001) // =======================================================
(PID.TID 0000.0001) // ECCO configuration >>> START <<<
(PID.TID 0000.0001) // =======================================================
(PID.TID 0000.0001) 
(PID.TID 0000.0001) gencost( 3) = sst
(PID.TID 0000.0001) -------------
(PID.TID 0000.0001)  data file = labsea_SST_fields_t10
(PID.TID 0000.0001)   starts and ends at :
(PID.TID 0000.0001)   19790101       0  1   4
(PID.TID 0000.0001)   19790101   90000  1   4
(PID.TID 0000.0001)   number of records =    10
(PID.TID 0000.0001)  model file = m_sst_step
(PID.TID 0000.0001)  error file = sigma_sst.bin
(PID.TID 0000.0001)  gencost_flag =  1
(PID.TID 0000.0001)  gencost_outputlevel =  1
(PID.TID 0000.0001)  gencost_kLev_select =  1
(PID.TID 0000.0001) 
(PID.TID 0000.0001) 
(PID.TID 0000.0001) 
(PID.TID 0000.0001) // =======================================================
(PID.TID 0000.0001) // ECCO configuration  >>> END <<<
(PID.TID 0000.0001) // =======================================================
(PID.TID 0000.0001) 
(PID.TID 0000.0001) // =======================================================
(PID.TID 0000.0001) // Seaice configuration (SEAICE_PARM01) >>> START <<<
(PID.TID 0000.0001) // =======================================================
(PID.TID 0000.0001) 
(PID.TID 0000.0001)    Seaice time stepping configuration   > START <
(PID.TID 0000.0001)    ----------------------------------------------
(PID.TID 0000.0001) SEAICE_deltaTtherm= /* thermodynamic timestep */
(PID.TID 0000.0001)                 3.600000000000000E+03
(PID.TID 0000.0001)     ;
(PID.TID 0000.0001) SEAICE_deltaTdyn  = /* dynamic timestep */
(PID.TID 0000.0001)                 3.600000000000000E+03
(PID.TID 0000.0001)     ;
(PID.TID 0000.0001) SEAICE_deltaTevp  = /* EVP timestep */
(PID.TID 0000.0001)                 1.234567000000000E+05
(PID.TID 0000.0001)     ;
(PID.TID 0000.0001) SEAICEuseBDF2  = /* use backw. differencing for mom. eq. */
(PID.TID 0000.0001)                   F
(PID.TID 0000.0001)     ;
(PID.TID 0000.0001) SEAICEupdateOceanStress= /* update Ocean surf. stress */
(PID.TID 0000.0001)                   T
(PID.TID 0000.0001)     ;
(PID.TID 0000.0001) SEAICErestoreUnderIce  = /* restore T and S under ice */
(PID.TID 0000.0001)                   F
(PID.TID 0000.0001)     ;
(PID.TID 0000.0001) 
(PID.TID 0000.0001)    Seaice dynamics configuration   > START <
(PID.TID 0000.0001)    ------------------------------------------
(PID.TID 0000.0001) SEAICEuseDYNAMICS = /* use dynamics */
(PID.TID 0000.0001)                   T
(PID.TID 0000.0001)     ;
(PID.TID 0000.0001) model grid type   = /* type of sea ice model grid */
(PID.TID 0000.0001)               'C-GRID'
(PID.TID 0000.0001)     ;
(PID.TID 0000.0001) SEAICEuseStrImpCpl = /* use strongly implicit coupling */
(PID.TID 0000.0001)                   F
(PID.TID 0000.0001)     ;
(PID.TID 0000.0001) SEAICEusePicardAsPrecon = /* Picard as preconditioner */
(PID.TID 0000.0001)                   F
(PID.TID 0000.0001)     ;
(PID.TID 0000.0001) SEAICEuseLSR      = /* use default Picard-LSR solver */
(PID.TID 0000.0001)                   T
(PID.TID 0000.0001)     ;
(PID.TID 0000.0001) SEAICEuseKrylov   = /* use Picard-Krylov solver */
(PID.TID 0000.0001)                   F
(PID.TID 0000.0001)     ;
(PID.TID 0000.0001) SEAICEuseEVP      = /* use EVP solver rather than LSR */
(PID.TID 0000.0001)                   F
(PID.TID 0000.0001)     ;
(PID.TID 0000.0001) SEAICEuseJFNK     = /* use JFNK solver */
(PID.TID 0000.0001)                   F
(PID.TID 0000.0001)     ;
(PID.TID 0000.0001) SEAICEuseFREEDRIFT = /* use free drift solution */
(PID.TID 0000.0001)                   F
(PID.TID 0000.0001)     ;
(PID.TID 0000.0001) OCEAN_drag        = /* air-ocean drag coefficient */
(PID.TID 0000.0001)                 1.000000000000000E-03
(PID.TID 0000.0001)     ;
(PID.TID 0000.0001) SEAICE_drag       = /* air-ice drag coefficient */
(PID.TID 0000.0001)                 2.000000000000000E-03
(PID.TID 0000.0001)     ;
(PID.TID 0000.0001) SEAICE_drag_south      = /* Southern Ocean SEAICE_drag */
(PID.TID 0000.0001)                 2.000000000000000E-03
(PID.TID 0000.0001)     ;
(PID.TID 0000.0001) SEAICE_waterDrag  = /* water-ice drag (no units) */
(PID.TID 0000.0001)                 5.355404089581304E-03
(PID.TID 0000.0001)     ;
(PID.TID 0000.0001) SEAICE_waterDrag_south = /* Southern Ocean waterDrag (no units) */
(PID.TID 0000.0001)                 5.355404089581304E-03
(PID.TID 0000.0001)     ;
(PID.TID 0000.0001) SEAICEdWatMin = /* minimum linear water-ice drag (in m/s) */
(PID.TID 0000.0001)                 2.500000000000000E-01
(PID.TID 0000.0001)     ;
(PID.TID 0000.0001) SEAICEuseTilt     = /* include surface tilt in dyna. */
(PID.TID 0000.0001)                   T
(PID.TID 0000.0001)     ;
(PID.TID 0000.0001) SEAICEuseTEM      = /* use truncated ellipse rheology */
(PID.TID 0000.0001)                   F
(PID.TID 0000.0001)     ;
(PID.TID 0000.0001) SEAICE_strength   = /* sea-ice strength Pstar */
(PID.TID 0000.0001)                 2.750000000000000E+04
(PID.TID 0000.0001)     ;
(PID.TID 0000.0001) SEAICE_cStar      = /* sea-ice strength parameter cStar */
(PID.TID 0000.0001)                 2.000000000000000E+01
(PID.TID 0000.0001)     ;
(PID.TID 0000.0001) SEAICEpressReplFac= /* press. replacement method factor */
(PID.TID 0000.0001)                 1.000000000000000E+00
(PID.TID 0000.0001)     ;
(PID.TID 0000.0001) SEAICE_tensilFac  = /* sea-ice tensile strength factor */
(PID.TID 0000.0001)                 0.000000000000000E+00
(PID.TID 0000.0001)     ;
(PID.TID 0000.0001) SEAICE_tensilDepth= /* crit. depth for tensile strength */
(PID.TID 0000.0001)                 0.000000000000000E+00
(PID.TID 0000.0001)     ;
(PID.TID 0000.0001) SEAICEpresH0   = /* sea-ice strength Heff threshold */
(PID.TID 0000.0001)                 1.000000000000000E+00
(PID.TID 0000.0001)     ;
(PID.TID 0000.0001) SEAICEpresPow0 = /* exponent for Heff<SEAICEpresH0 */
(PID.TID 0000.0001)                       1
(PID.TID 0000.0001)     ;
(PID.TID 0000.0001) SEAICEpresPow1 = /* exponent for Heff>SEAICEpresH0 */
(PID.TID 0000.0001)                       1
(PID.TID 0000.0001)     ;
(PID.TID 0000.0001) SEAICEetaZmethod = /* method computing eta at Z-point */
(PID.TID 0000.0001)                       0
(PID.TID 0000.0001)     ;
(PID.TID 0000.0001) SEAICE_zetaMaxFac = /* factor for upper viscosity bound */
(PID.TID 0000.0001)                 2.500000000000000E+08
(PID.TID 0000.0001)     ;
(PID.TID 0000.0001) SEAICE_zetaMin    = /* lower bound for viscosity */
(PID.TID 0000.0001)                 0.000000000000000E+00
(PID.TID 0000.0001)     ;
(PID.TID 0000.0001) SEAICE_eccen    = /* elliptical yield curve eccent */
(PID.TID 0000.0001)                 2.000000000000000E+00
(PID.TID 0000.0001)     ;
(PID.TID 0000.0001) SEAICEstressFactor    = /* wind stress scaling factor */
(PID.TID 0000.0001)                 1.000000000000000E+00
(PID.TID 0000.0001)     ;
(PID.TID 0000.0001) SEAICE_airTurnAngle    = /* air-ice turning angle */
(PID.TID 0000.0001)                 0.000000000000000E+00
(PID.TID 0000.0001)     ;
(PID.TID 0000.0001) SEAICE_waterTurnAngle  = /* ice-water turning angle */
(PID.TID 0000.0001)                 0.000000000000000E+00
(PID.TID 0000.0001)     ;
(PID.TID 0000.0001) SEAICEuseMetricTerms = /* use metric terms */
(PID.TID 0000.0001)                   T
(PID.TID 0000.0001)     ;
(PID.TID 0000.0001) SEAICE_no_slip    = /* no slip boundary conditions */
(PID.TID 0000.0001)                   F
(PID.TID 0000.0001)     ;
(PID.TID 0000.0001) SEAICE_2ndOrderBC = /* 2nd order no slip boundary conditions */
(PID.TID 0000.0001)                   F
(PID.TID 0000.0001)     ;
(PID.TID 0000.0001) SEAICE_clipVeloctities = /* impose max. vels. */
(PID.TID 0000.0001)                   F
(PID.TID 0000.0001)     ;
(PID.TID 0000.0001) useHB87stressCoupling  = /* altern. ice-ocean stress */
(PID.TID 0000.0001)                   F
(PID.TID 0000.0001)     ;
(PID.TID 0000.0001) SEAICEscaleSurfStress  = /* scale atm. and ocean-surface stress with AREA */
(PID.TID 0000.0001)                   F
(PID.TID 0000.0001)     ;
(PID.TID 0000.0001) SEAICE_maskRHS    = /* mask RHS of solver */
(PID.TID 0000.0001)                   F
(PID.TID 0000.0001)     ;
(PID.TID 0000.0001) SEAICEaddSnowMass = /* add snow mass to seaiceMassC/U/V */
(PID.TID 0000.0001)                   F
(PID.TID 0000.0001)     ;
(PID.TID 0000.0001) LSR_mixIniGuess = /* mix free-drift sol. into LSR initial Guess */
(PID.TID 0000.0001)                       0
(PID.TID 0000.0001)     ;
(PID.TID 0000.0001) SEAICE_LSRrelaxU  = /* LSR solver: relaxation parameter */
(PID.TID 0000.0001)                 9.500000000000000E-01
(PID.TID 0000.0001)     ;
(PID.TID 0000.0001) SEAICE_LSRrelaxV  = /* LSR solver: relaxation parameter */
(PID.TID 0000.0001)                 9.500000000000000E-01
(PID.TID 0000.0001)     ;
(PID.TID 0000.0001) LSR_ERROR         = /* sets accuracy of LSR solver */
(PID.TID 0000.0001)                 1.000000000000000E-06
(PID.TID 0000.0001)     ;
(PID.TID 0000.0001) SOLV_NCHECK       = /* test interval for LSR solver */
(PID.TID 0000.0001)                       2
(PID.TID 0000.0001)     ;
(PID.TID 0000.0001) SEAICEuseMultiTileSolver = /* use full domain tri-diag solver */
(PID.TID 0000.0001)                   F
(PID.TID 0000.0001)     ;
(PID.TID 0000.0001) SEAICE_OLx = /* overlap for LSR/preconditioner */
(PID.TID 0000.0001)                       0
(PID.TID 0000.0001)     ;
(PID.TID 0000.0001) SEAICE_OLy = /* overlap for LSR/preconditioner */
(PID.TID 0000.0001)                       0
(PID.TID 0000.0001)     ;
(PID.TID 0000.0001) SEAICEnonLinIterMax = /* max. number of nonlinear solver steps */
(PID.TID 0000.0001)                       2
(PID.TID 0000.0001)     ;
(PID.TID 0000.0001) SEAICElinearIterMax = /* max. number of linear solver steps */
(PID.TID 0000.0001)                     500
(PID.TID 0000.0001)     ;
(PID.TID 0000.0001) SEAICEnonLinTol     = /* non-linear solver tolerance */
(PID.TID 0000.0001)                 0.000000000000000E+00
(PID.TID 0000.0001)     ;
(PID.TID 0000.0001) 
(PID.TID 0000.0001)    Seaice advection diffusion config,   > START <
(PID.TID 0000.0001)    -----------------------------------------------
(PID.TID 0000.0001) SEAICEmomAdvection = /* advect sea ice momentum */
(PID.TID 0000.0001)                   F
(PID.TID 0000.0001)     ;
(PID.TID 0000.0001) SEAICEadvHeff = /* advect effective ice thickness */
(PID.TID 0000.0001)                   T
(PID.TID 0000.0001)     ;
(PID.TID 0000.0001) SEAICEadvArea = /* advect fractional ice area */
(PID.TID 0000.0001)                   T
(PID.TID 0000.0001)     ;
(PID.TID 0000.0001) SEAICEadvSnow = /* advect snow layer together with ice */
(PID.TID 0000.0001)                   T
(PID.TID 0000.0001)     ;
(PID.TID 0000.0001) SEAICEadvSalt = /* advect salinity together with ice */
(PID.TID 0000.0001)                   F
(PID.TID 0000.0001)     ;
(PID.TID 0000.0001) SEAICEadvScheme   = /* advection scheme for ice */
(PID.TID 0000.0001)                       2
(PID.TID 0000.0001)     ;
(PID.TID 0000.0001) SEAICEuseFluxForm = /* advection in FV flux form */
(PID.TID 0000.0001)                   T
(PID.TID 0000.0001)     ;
(PID.TID 0000.0001) SEAICEadvSchArea   = /* advection scheme for area */
(PID.TID 0000.0001)                       2
(PID.TID 0000.0001)     ;
(PID.TID 0000.0001) SEAICEadvSchHeff   = /* advection scheme for thickness */
(PID.TID 0000.0001)                       2
(PID.TID 0000.0001)     ;
(PID.TID 0000.0001) SEAICEadvSchSnow   = /* advection scheme for snow */
(PID.TID 0000.0001)                       2
(PID.TID 0000.0001)     ;
(PID.TID 0000.0001) SEAICEdiffKhArea   = /* diffusivity (m^2/s) for area */
(PID.TID 0000.0001)                 2.000000000000000E+02
(PID.TID 0000.0001)     ;
(PID.TID 0000.0001) SEAICEdiffKhHeff   = /* diffusivity (m^2/s) for heff */
(PID.TID 0000.0001)                 2.000000000000000E+02
(PID.TID 0000.0001)     ;
(PID.TID 0000.0001) SEAICEdiffKhSnow   = /* diffusivity (m^2/s) for snow */
(PID.TID 0000.0001)                 2.000000000000000E+02
(PID.TID 0000.0001)     ;
(PID.TID 0000.0001) DIFF1             = /* parameter used in advect.F [m/s] */
(PID.TID 0000.0001)                 0.000000000000000E+00
(PID.TID 0000.0001)     ;
(PID.TID 0000.0001) 
(PID.TID 0000.0001)    Seaice thermodynamics configuration   > START <
(PID.TID 0000.0001)    -----------------------------------------------
(PID.TID 0000.0001) SEAICE_rhoIce     = /* density of sea ice (kg/m3) */
(PID.TID 0000.0001)                 9.100000000000000E+02
(PID.TID 0000.0001)     ;
(PID.TID 0000.0001) SEAICE_rhoSnow    = /* density of snow (kg/m3) */
(PID.TID 0000.0001)                 3.300000000000000E+02
(PID.TID 0000.0001)     ;
(PID.TID 0000.0001) SEAICE_rhoAir     = /* density of air (kg/m3) */
(PID.TID 0000.0001)                 1.200000000000000E+00
(PID.TID 0000.0001)     ;
(PID.TID 0000.0001) usePW79thermodynamics  = /* default 0-layer TD */
(PID.TID 0000.0001)                   T
(PID.TID 0000.0001)     ;
(PID.TID 0000.0001) SEAICE_lhEvap     = /* latent heat of evaporation */
(PID.TID 0000.0001)                 2.500000000000000E+06
(PID.TID 0000.0001)     ;
(PID.TID 0000.0001) SEAICE_lhFusion   = /* latent heat of fusion */
(PID.TID 0000.0001)                 3.340000000000000E+05
(PID.TID 0000.0001)     ;
(PID.TID 0000.0001) SEAICE_mcPheePiston = /* turbulent flux "piston velocity" a la McPhee (m/s) */
(PID.TID 0000.0001)                 2.222222222222222E-03
(PID.TID 0000.0001)     ;
(PID.TID 0000.0001) SEAICE_mcPheeTaper = /* tapering of turbulent flux (0.< <1.) for AREA=1. */
(PID.TID 0000.0001)                 0.000000000000000E+00
(PID.TID 0000.0001)     ;
(PID.TID 0000.0001) SEAICE_mcPheeStepFunc = /* replace linear tapering with step funct. */
(PID.TID 0000.0001)                   F
(PID.TID 0000.0001)     ;
(PID.TID 0000.0001) SEAICE_frazilFrac = /* frazil (T<tempFrz) to seaice conversion rate (0.< <1.) */
(PID.TID 0000.0001)                 8.000000000000000E-01
(PID.TID 0000.0001)     ;
(PID.TID 0000.0001) SEAICE_tempFrz0   = /* freezing temp. of sea water (intercept) */
(PID.TID 0000.0001)                -1.960000000000000E+00
(PID.TID 0000.0001)     ;
(PID.TID 0000.0001) SEAICE_dTempFrz_dS= /* freezing temp. of sea water (slope) */
(PID.TID 0000.0001)                 0.000000000000000E+00
(PID.TID 0000.0001)     ;
(PID.TID 0000.0001) SEAICE_growMeltByConv  = /* grow,melt by vert. conv. */
(PID.TID 0000.0001)                   F
(PID.TID 0000.0001)     ;
(PID.TID 0000.0001) SEAICE_doOpenWaterGrowth = /* grow by open water */
(PID.TID 0000.0001)                   F
(PID.TID 0000.0001)     ;
(PID.TID 0000.0001) SEAICE_doOpenWaterMelt = /* melt by open water */
(PID.TID 0000.0001)                   F
(PID.TID 0000.0001)     ;
(PID.TID 0000.0001) SEAICE_areaGainFormula = /* ice cover gain formula (1,2)*/
(PID.TID 0000.0001)                       2
(PID.TID 0000.0001)     1=from growth by ATM
(PID.TID 0000.0001)     2=from predicted growth by ATM
(PID.TID 0000.0001)     ;
(PID.TID 0000.0001) SEAICE_areaLossFormula = /* ice cover loss formula (1,2)*/
(PID.TID 0000.0001)                       3
(PID.TID 0000.0001)     1=from all but only melt conributions by ATM and OCN
(PID.TID 0000.0001)     2=from net melt-grow>0 by ATM and OCN
(PID.TID 0000.0001)     3=from predicted melt by ATM
(PID.TID 0000.0001)     ;
(PID.TID 0000.0001) HO                = /* nominal thickness of new ice */
(PID.TID 0000.0001)                 5.000000000000000E-01
(PID.TID 0000.0001)     ;
(PID.TID 0000.0001) HO_south               = /* Southern Ocean HO */
(PID.TID 0000.0001)                 5.000000000000000E-01
(PID.TID 0000.0001)     ;
(PID.TID 0000.0001) SEAICE_area_max        = /* set to les than 1. to mimic open leads */
(PID.TID 0000.0001)                 1.000000000000000E+00
(PID.TID 0000.0001)     ;
(PID.TID 0000.0001)    Sea ice has a variable salinity such that
(PID.TID 0000.0001) SEAICE_saltFrac = /* fraction of ocn salinity in new ice */
(PID.TID 0000.0001)                 3.000000000000000E-01
(PID.TID 0000.0001)     ;
(PID.TID 0000.0001) SEAICE_salinityTracer = /* test SITR varia. salinity */
(PID.TID 0000.0001)                   F
(PID.TID 0000.0001)     ;
(PID.TID 0000.0001) SEAICEuseFlooding = /* turn submerged snow into ice */
(PID.TID 0000.0001)                   T
(PID.TID 0000.0001)     ;
(PID.TID 0000.0001) 
(PID.TID 0000.0001)    Seaice air-sea fluxes configuration,   > START <
(PID.TID 0000.0001)    -----------------------------------------------
(PID.TID 0000.0001) SEAICEheatConsFix  = /* accound for ocn<->seaice advect. heat flux */
(PID.TID 0000.0001)                   F
(PID.TID 0000.0001)     ;
(PID.TID 0000.0001) SEAICE_multDim    = /* number of ice categories (1 or 7) */
(PID.TID 0000.0001)                       7
(PID.TID 0000.0001)     ;
(PID.TID 0000.0001) SEAICE_PDF        = /* sea-ice distribution (-) */
(PID.TID 0000.0001)     7 @  1.428571428571428E-01              /* K =  1:  7 */
(PID.TID 0000.0001)     ;
(PID.TID 0000.0001) IMAX_TICE         = /* iterations for ice surface temp */
(PID.TID 0000.0001)                      10
(PID.TID 0000.0001)     ;
(PID.TID 0000.0001) postSolvTempIter= /* flux calculation after surf. temp iter */
(PID.TID 0000.0001)                       0
(PID.TID 0000.0001)     ;
(PID.TID 0000.0001) SEAICE_dryIceAlb  = /* winter albedo */
(PID.TID 0000.0001)                 7.500000000000000E-01
(PID.TID 0000.0001)     ;
(PID.TID 0000.0001) SEAICE_wetIceAlb  = /* summer albedo */
(PID.TID 0000.0001)                 6.600000000000000E-01
(PID.TID 0000.0001)     ;
(PID.TID 0000.0001) SEAICE_drySnowAlb = /* dry snow albedo */
(PID.TID 0000.0001)                 8.400000000000000E-01
(PID.TID 0000.0001)     ;
(PID.TID 0000.0001) SEAICE_wetSnowAlb = /* wet snow albedo */
(PID.TID 0000.0001)                 7.000000000000000E-01
(PID.TID 0000.0001)     ;
(PID.TID 0000.0001) SEAICE_dryIceAlb_south = /* Southern Ocean dryIceAlb */
(PID.TID 0000.0001)                 7.500000000000000E-01
(PID.TID 0000.0001)     ;
(PID.TID 0000.0001) SEAICE_wetIceAlb_south = /* Southern Ocean wetIceAlb */
(PID.TID 0000.0001)                 6.600000000000000E-01
(PID.TID 0000.0001)     ;
(PID.TID 0000.0001) SEAICE_drySnowAlb_south= /* Southern Ocean drySnowAlb */
(PID.TID 0000.0001)                 8.400000000000000E-01
(PID.TID 0000.0001)     ;
(PID.TID 0000.0001) SEAICE_wetSnowAlb_south= /* Southern Ocean wetSnowAlb */
(PID.TID 0000.0001)                 7.000000000000000E-01
(PID.TID 0000.0001)     ;
(PID.TID 0000.0001) SEAICE_wetAlbTemp= /* Temp (o.C) threshold for wet-albedo */
(PID.TID 0000.0001)                -1.000000000000000E-03
(PID.TID 0000.0001)     ;
(PID.TID 0000.0001) SEAICE_snow_emiss = /* snow emissivity */
(PID.TID 0000.0001)                 9.500000000000000E-01
(PID.TID 0000.0001)     ;
(PID.TID 0000.0001) SEAICE_ice_emiss = /* seaice emissivity */
(PID.TID 0000.0001)                 9.500000000000000E-01
(PID.TID 0000.0001)     ;
(PID.TID 0000.0001) SEAICE_cpAir      = /* heat capacity of air */
(PID.TID 0000.0001)                 1.005000000000000E+03
(PID.TID 0000.0001)     ;
(PID.TID 0000.0001) SEAICE_dalton     = /* constant dalton number */
(PID.TID 0000.0001)                 1.750000000000000E-03
(PID.TID 0000.0001)     ;
(PID.TID 0000.0001) SEAICE_iceConduct = /* sea-ice conductivity */
(PID.TID 0000.0001)                 2.165600000000000E+00
(PID.TID 0000.0001)     ;
(PID.TID 0000.0001) SEAICE_snowConduct= /* snow conductivity */
(PID.TID 0000.0001)                 3.100000000000000E-01
(PID.TID 0000.0001)     ;
(PID.TID 0000.0001) SEAICE_snowThick  = /* cutoff snow thickness (for albedo) */
(PID.TID 0000.0001)                 1.500000000000000E-01
(PID.TID 0000.0001)     ;
(PID.TID 0000.0001) SEAICE_shortwave  = /* penetration shortwave radiation */
(PID.TID 0000.0001)                 3.000000000000000E-01
(PID.TID 0000.0001)     ;
(PID.TID 0000.0001) useMaykutSatVapPoly = /* use Maykut Polynomial for Sat.Vap.Pr */
(PID.TID 0000.0001)                   T
(PID.TID 0000.0001)     ;
(PID.TID 0000.0001) MIN_ATEMP         = /* minimum air temperature */
(PID.TID 0000.0001)                -5.000000000000000E+01
(PID.TID 0000.0001)     ;
(PID.TID 0000.0001) MIN_LWDOWN        = /* minimum downward longwave */
(PID.TID 0000.0001)                 6.000000000000000E+01
(PID.TID 0000.0001)     ;
(PID.TID 0000.0001) MIN_TICE          = /* minimum ice temperature */
(PID.TID 0000.0001)                -5.000000000000000E+01
(PID.TID 0000.0001)     ;
(PID.TID 0000.0001) 
(PID.TID 0000.0001)    Seaice initialization and IO config.,   > START <
(PID.TID 0000.0001)    -------------------------------------------------
(PID.TID 0000.0001) SEAICE_initialHEFF= /* initial sea-ice thickness */
(PID.TID 0000.0001)                 1.000000000000000E+00
(PID.TID 0000.0001)     ;
(PID.TID 0000.0001) AreaFile = /* Initial ice concentration File */
(PID.TID 0000.0001)               ''
(PID.TID 0000.0001)     ;
(PID.TID 0000.0001) HeffFile = /* Initial effective ice thickness File */
(PID.TID 0000.0001)               ''
(PID.TID 0000.0001)     ;
(PID.TID 0000.0001) HsnowFile = /* Initial snow thickness File */
(PID.TID 0000.0001)               ''
(PID.TID 0000.0001)     ;
(PID.TID 0000.0001) HsaltFile = /* Initial HSALT File */
(PID.TID 0000.0001)               ''
(PID.TID 0000.0001)     ;
(PID.TID 0000.0001) uIceFile = /* Initial U-ice velocity File */
(PID.TID 0000.0001)               ''
(PID.TID 0000.0001)     ;
(PID.TID 0000.0001) vIceFile = /* Initial V-ice velocity File */
(PID.TID 0000.0001)               ''
(PID.TID 0000.0001)     ;
(PID.TID 0000.0001) SEAICEwriteState  = /* write sea ice state to file */
(PID.TID 0000.0001)                   T
(PID.TID 0000.0001)     ;
(PID.TID 0000.0001) SEAICE_monFreq  = /* monitor frequency */
(PID.TID 0000.0001)                 1.000000000000000E+00
(PID.TID 0000.0001)     ;
(PID.TID 0000.0001) SEAICE_dumpFreq   = /* dump frequency */
(PID.TID 0000.0001)                 0.000000000000000E+00
(PID.TID 0000.0001)     ;
(PID.TID 0000.0001) SEAICE_taveFreq   = /* time-averaging frequency */
(PID.TID 0000.0001)                 0.000000000000000E+00
(PID.TID 0000.0001)     ;
(PID.TID 0000.0001) SEAICE_mon_stdio  = /* write monitor to std-outp */
(PID.TID 0000.0001)                   T
(PID.TID 0000.0001)     ;
(PID.TID 0000.0001) SEAICE_dump_mdsio = /* write snap-shot   using MDSIO */
(PID.TID 0000.0001)                   T
(PID.TID 0000.0001)     ;
(PID.TID 0000.0001) SEAICE_tave_mdsio = /* write TimeAverage using MDSIO */
(PID.TID 0000.0001)                   T
(PID.TID 0000.0001)     ;
(PID.TID 0000.0001) SEAICE_mon_mnc    = /* write monitor to netcdf file */
(PID.TID 0000.0001)                   F
(PID.TID 0000.0001)     ;
(PID.TID 0000.0001) SEAICE_dump_mnc   = /* write snap-shot   using MNC */
(PID.TID 0000.0001)                   F
(PID.TID 0000.0001)     ;
(PID.TID 0000.0001) SEAICE_tave_mnc   = /* write TimeAverage using MNC */
(PID.TID 0000.0001)                   F
(PID.TID 0000.0001)     ;
(PID.TID 0000.0001) 
(PID.TID 0000.0001)    Seaice regularization numbers,   > START <
(PID.TID 0000.0001)    -----------------------------------------------
(PID.TID 0000.0001) SEAICE_deltaMin   = /* reduce singularities in Delta */
(PID.TID 0000.0001)                 1.000000000000000E-08
(PID.TID 0000.0001)     ;
(PID.TID 0000.0001) SEAICE_EPS        = /* small number */
(PID.TID 0000.0001)                 1.000000000000000E-08
(PID.TID 0000.0001)     ;
(PID.TID 0000.0001) SEAICE_EPS_SQ     = /* small number squared */
(PID.TID 0000.0001)                 1.000000000000000E-16
(PID.TID 0000.0001)     ;
(PID.TID 0000.0001) SEAICE_area_reg   = /* reduce derivative singularities */
(PID.TID 0000.0001)                 1.000000000000000E-05
(PID.TID 0000.0001)     ;
(PID.TID 0000.0001) SEAICE_hice_reg   = /* reduce derivative singularities */
(PID.TID 0000.0001)                 5.000000000000000E-02
(PID.TID 0000.0001)     ;
(PID.TID 0000.0001) SEAICE_area_floor = /* reduce derivative singularities */
(PID.TID 0000.0001)                 1.000000000000000E-05
(PID.TID 0000.0001)     ;
(PID.TID 0000.0001) 
(PID.TID 0000.0001) // =======================================================
(PID.TID 0000.0001) // Seaice configuration (SEAICE_PARM01) >>> END <<<
(PID.TID 0000.0001) // =======================================================
(PID.TID 0000.0001) 
(PID.TID 0000.0001)  MDS_WRITE_FIELD: it,rec,kS,kL,kH=       0     1  23   1  23 file=wunit
(PID.TID 0000.0001) CTRL_INIT_REC: Getting record indices for xx_atemp
(PID.TID 0000.0001) CTRL_INIT_REC: Record indices for xx_atemp:
(PID.TID 0000.0001) CTRL_INIT_REC: startrec =          1, endrec =         11
(PID.TID 0000.0001)  MDS_WRITE_FIELD: it,rec,kS,kL,kH=       1     1   1   1   1 file=adxx_atemp.effective.0000000001
(PID.TID 0000.0001)  MDS_WRITE_FIELD: it,rec,kS,kL,kH=       1     2   1   1   1 file=adxx_atemp.effective.0000000001
(PID.TID 0000.0001)  MDS_WRITE_FIELD: it,rec,kS,kL,kH=       1     3   1   1   1 file=adxx_atemp.effective.0000000001
(PID.TID 0000.0001)  MDS_WRITE_FIELD: it,rec,kS,kL,kH=       1     4   1   1   1 file=adxx_atemp.effective.0000000001
(PID.TID 0000.0001)  MDS_WRITE_FIELD: it,rec,kS,kL,kH=       1     5   1   1   1 file=adxx_atemp.effective.0000000001
(PID.TID 0000.0001)  MDS_WRITE_FIELD: it,rec,kS,kL,kH=       1     6   1   1   1 file=adxx_atemp.effective.0000000001
(PID.TID 0000.0001)  MDS_WRITE_FIELD: it,rec,kS,kL,kH=       1     7   1   1   1 file=adxx_atemp.effective.0000000001
(PID.TID 0000.0001)  MDS_WRITE_FIELD: it,rec,kS,kL,kH=       1     8   1   1   1 file=adxx_atemp.effective.0000000001
(PID.TID 0000.0001)  MDS_WRITE_FIELD: it,rec,kS,kL,kH=       1     9   1   1   1 file=adxx_atemp.effective.0000000001
(PID.TID 0000.0001)  MDS_WRITE_FIELD: it,rec,kS,kL,kH=       1    10   1   1   1 file=adxx_atemp.effective.0000000001
(PID.TID 0000.0001)  MDS_WRITE_FIELD: it,rec,kS,kL,kH=       1    11   1   1   1 file=adxx_atemp.effective.0000000001
(PID.TID 0000.0001)  MDS_WRITE_FIELD: it,rec,kS,kL,kH=       1     1   1   1   1 file=adxx_atemp.tmp.0000000001
(PID.TID 0000.0001)  MDS_WRITE_FIELD: it,rec,kS,kL,kH=       1     2   1   1   1 file=adxx_atemp.tmp.0000000001
(PID.TID 0000.0001)  MDS_WRITE_FIELD: it,rec,kS,kL,kH=       1     3   1   1   1 file=adxx_atemp.tmp.0000000001
(PID.TID 0000.0001)  MDS_WRITE_FIELD: it,rec,kS,kL,kH=       1     4   1   1   1 file=adxx_atemp.tmp.0000000001
(PID.TID 0000.0001)  MDS_WRITE_FIELD: it,rec,kS,kL,kH=       1     5   1   1   1 file=adxx_atemp.tmp.0000000001
(PID.TID 0000.0001)  MDS_WRITE_FIELD: it,rec,kS,kL,kH=       1     6   1   1   1 file=adxx_atemp.tmp.0000000001
(PID.TID 0000.0001)  MDS_WRITE_FIELD: it,rec,kS,kL,kH=       1     7   1   1   1 file=adxx_atemp.tmp.0000000001
(PID.TID 0000.0001)  MDS_WRITE_FIELD: it,rec,kS,kL,kH=       1     8   1   1   1 file=adxx_atemp.tmp.0000000001
(PID.TID 0000.0001)  MDS_WRITE_FIELD: it,rec,kS,kL,kH=       1     9   1   1   1 file=adxx_atemp.tmp.0000000001
(PID.TID 0000.0001)  MDS_WRITE_FIELD: it,rec,kS,kL,kH=       1    10   1   1   1 file=adxx_atemp.tmp.0000000001
(PID.TID 0000.0001)  MDS_WRITE_FIELD: it,rec,kS,kL,kH=       1    11   1   1   1 file=adxx_atemp.tmp.0000000001
(PID.TID 0000.0001)  MDS_WRITE_FIELD: it,rec,kS,kL,kH=       1     1   1   1   1 file=adxx_atemp.0000000001
(PID.TID 0000.0001)  MDS_WRITE_FIELD: it,rec,kS,kL,kH=       1     2   1   1   1 file=adxx_atemp.0000000001
(PID.TID 0000.0001)  MDS_WRITE_FIELD: it,rec,kS,kL,kH=       1     3   1   1   1 file=adxx_atemp.0000000001
(PID.TID 0000.0001)  MDS_WRITE_FIELD: it,rec,kS,kL,kH=       1     4   1   1   1 file=adxx_atemp.0000000001
(PID.TID 0000.0001)  MDS_WRITE_FIELD: it,rec,kS,kL,kH=       1     5   1   1   1 file=adxx_atemp.0000000001
(PID.TID 0000.0001)  MDS_WRITE_FIELD: it,rec,kS,kL,kH=       1     6   1   1   1 file=adxx_atemp.0000000001
(PID.TID 0000.0001)  MDS_WRITE_FIELD: it,rec,kS,kL,kH=       1     7   1   1   1 file=adxx_atemp.0000000001
(PID.TID 0000.0001)  MDS_WRITE_FIELD: it,rec,kS,kL,kH=       1     8   1   1   1 file=adxx_atemp.0000000001
(PID.TID 0000.0001)  MDS_WRITE_FIELD: it,rec,kS,kL,kH=       1     9   1   1   1 file=adxx_atemp.0000000001
(PID.TID 0000.0001)  MDS_WRITE_FIELD: it,rec,kS,kL,kH=       1    10   1   1   1 file=adxx_atemp.0000000001
(PID.TID 0000.0001)  MDS_WRITE_FIELD: it,rec,kS,kL,kH=       1    11   1   1   1 file=adxx_atemp.0000000001
(PID.TID 0000.0001) CTRL_INIT_REC: Getting record indices for
(PID.TID 0000.0001) CTRL_INIT_REC: Record indices for :
(PID.TID 0000.0001) CTRL_INIT_REC: startrec =          1, endrec =          1
(PID.TID 0000.0001) CTRL_INIT_REC: Getting record indices for
(PID.TID 0000.0001) CTRL_INIT_REC: Record indices for :
(PID.TID 0000.0001) CTRL_INIT_REC: startrec =          1, endrec =          1
(PID.TID 0000.0001) CTRL_INIT_REC: Getting record indices for
(PID.TID 0000.0001) CTRL_INIT_REC: Record indices for :
(PID.TID 0000.0001) CTRL_INIT_REC: startrec =          1, endrec =          1
(PID.TID 0000.0001) CTRL_INIT_REC: Getting record indices for
(PID.TID 0000.0001) CTRL_INIT_REC: Record indices for :
(PID.TID 0000.0001) CTRL_INIT_REC: startrec =          1, endrec =          1
(PID.TID 0000.0001) CTRL_INIT_REC: Getting record indices for
(PID.TID 0000.0001) CTRL_INIT_REC: Record indices for :
(PID.TID 0000.0001) CTRL_INIT_REC: startrec =          1, endrec =          1
(PID.TID 0000.0001) CTRL_INIT_REC: Getting record indices for
(PID.TID 0000.0001) CTRL_INIT_REC: Record indices for :
(PID.TID 0000.0001) CTRL_INIT_REC: startrec =          1, endrec =          1
(PID.TID 0000.0001) CTRL_INIT_REC: Getting record indices for
(PID.TID 0000.0001) CTRL_INIT_REC: Record indices for :
(PID.TID 0000.0001) CTRL_INIT_REC: startrec =          1, endrec =          1
(PID.TID 0000.0001) CTRL_INIT_REC: Getting record indices for
(PID.TID 0000.0001) CTRL_INIT_REC: Record indices for :
(PID.TID 0000.0001) CTRL_INIT_REC: startrec =          1, endrec =          1
(PID.TID 0000.0001) ctrl-wet 1:    nvarlength =         1650
(PID.TID 0000.0001) ctrl-wet 2: surface wet C =          150
(PID.TID 0000.0001) ctrl-wet 3: surface wet W =          129
(PID.TID 0000.0001) ctrl-wet 4: surface wet S =          120
(PID.TID 0000.0001) ctrl-wet 4a:surface wet V =            0
(PID.TID 0000.0001) ctrl-wet 5: 3D wet points =         1860
(PID.TID 0000.0001) ctrl-wet 6: no recs for i =     1           0
(PID.TID 0000.0001) ctrl-wet 6: no recs for i =     2           0
(PID.TID 0000.0001) ctrl-wet 6: no recs for i =     3           0
(PID.TID 0000.0001) ctrl-wet 6: no recs for i =     4           0
(PID.TID 0000.0001) ctrl-wet 6: no recs for i =     5           0
(PID.TID 0000.0001) ctrl-wet 6: no recs for i =     6           0
(PID.TID 0000.0001) ctrl-wet 6: no recs for i =     7           0
(PID.TID 0000.0001) ctrl-wet 6: no recs for i =     8           0
(PID.TID 0000.0001) ctrl-wet 6: no recs for i =     9           0
(PID.TID 0000.0001) ctrl-wet 6: no recs for i =    10           0
(PID.TID 0000.0001) ctrl-wet 6: no recs for i =    11           0
(PID.TID 0000.0001) ctrl-wet 6: no recs for i =    12           0
(PID.TID 0000.0001) ctrl-wet 6: no recs for i =    13           0
(PID.TID 0000.0001) ctrl-wet 6: no recs for i =    14           0
(PID.TID 0000.0001) ctrl-wet 6: no recs for i =    15           0
(PID.TID 0000.0001) ctrl-wet 6: no recs for i =    16           0
(PID.TID 0000.0001) ctrl-wet 6: no recs for i =    17           0
(PID.TID 0000.0001) ctrl-wet 6: no recs for i =    18           0
(PID.TID 0000.0001) ctrl-wet 6: no recs for i =    19           0
(PID.TID 0000.0001) ctrl-wet 6: no recs for i =    20           0
(PID.TID 0000.0001) ctrl-wet 6: no recs for i =    21           0
(PID.TID 0000.0001) ctrl-wet 6: no recs for i =    22           0
(PID.TID 0000.0001) ctrl-wet 6: no recs for i =    23           0
(PID.TID 0000.0001) ctrl-wet 6: no recs for i =    24           0
(PID.TID 0000.0001) ctrl-wet 6: no recs for i =    25           0
(PID.TID 0000.0001) ctrl-wet 6: no recs for i =    26           0
(PID.TID 0000.0001) ctrl-wet 6: no recs for i =    27           0
(PID.TID 0000.0001) ctrl-wet 6: no recs for i =    28           0
(PID.TID 0000.0001) ctrl-wet 6: no recs for i =    29           0
(PID.TID 0000.0001) ctrl-wet 6: no recs for i =    30           0
(PID.TID 0000.0001) ctrl-wet 6: no recs for i =    31           0
(PID.TID 0000.0001) ctrl-wet 6: no recs for i =    32           0
(PID.TID 0000.0001) ctrl-wet 6: no recs for i =    33           0
(PID.TID 0000.0001) ctrl-wet 6: no recs for i =    34           0
(PID.TID 0000.0001) ctrl-wet 6: no recs for i =    35           0
(PID.TID 0000.0001) ctrl-wet 6: no recs for i =    36           0
(PID.TID 0000.0001) ctrl-wet 6: no recs for i =    37           0
(PID.TID 0000.0001) ctrl-wet 6: no recs for i =    38           0
(PID.TID 0000.0001) ctrl-wet 6: no recs for i =    39           0
(PID.TID 0000.0001) ctrl-wet 6: no recs for i =    40           0
(PID.TID 0000.0001) ctrl-wet 6: no recs for i =    41           0
(PID.TID 0000.0001) ctrl-wet 6: no recs for i =    42           0
(PID.TID 0000.0001) ctrl-wet 6: no recs for i =    43           0
(PID.TID 0000.0001) ctrl-wet 6: no recs for i =    44           0
(PID.TID 0000.0001) ctrl-wet 6: no recs for i =    45           0
(PID.TID 0000.0001) ctrl-wet 6: no recs for i =    46           0
(PID.TID 0000.0001) ctrl-wet 6: no recs for i =    47           0
(PID.TID 0000.0001) ctrl-wet 6: no recs for i =    48           0
(PID.TID 0000.0001) ctrl-wet 6: no recs for i =    49           0
(PID.TID 0000.0001) ctrl-wet 6: no recs for i =    50           0
(PID.TID 0000.0001) ctrl-wet 6: no recs for i =    51           0
(PID.TID 0000.0001) ctrl-wet 6: no recs for i =    52           0
(PID.TID 0000.0001) ctrl-wet 6: no recs for i =    53           0
(PID.TID 0000.0001) ctrl-wet 6: no recs for i =    54           0
(PID.TID 0000.0001) ctrl-wet 6: no recs for i =    55           0
(PID.TID 0000.0001) ctrl-wet 6: no recs for i =    56           0
(PID.TID 0000.0001) ctrl-wet 6: no recs for i =    57           0
(PID.TID 0000.0001) ctrl-wet 6: no recs for i =    58           0
(PID.TID 0000.0001) ctrl-wet 6: no recs for i =    59           0
(PID.TID 0000.0001) ctrl-wet 6: no recs for i =    60           0
(PID.TID 0000.0001) ctrl-wet 6: no recs for i =    61           0
(PID.TID 0000.0001) ctrl-wet 6: no recs for i =    62           0
(PID.TID 0000.0001) ctrl-wet 6: no recs for i =    63           0
(PID.TID 0000.0001) ctrl-wet 6: no recs for i =    64           0
(PID.TID 0000.0001) ctrl-wet 6: no recs for i =    65           0
(PID.TID 0000.0001) ctrl-wet 6: no recs for i =    66           0
(PID.TID 0000.0001) ctrl-wet 6: no recs for i =    67           0
(PID.TID 0000.0001) ctrl-wet 6: no recs for i =    68           0
(PID.TID 0000.0001) ctrl-wet 6: no recs for i =    69           0
(PID.TID 0000.0001) ctrl-wet 6: no recs for i =    70           0
(PID.TID 0000.0001) ctrl-wet 6: no recs for i =    71           0
(PID.TID 0000.0001) ctrl-wet 6: no recs for i =    72           0
(PID.TID 0000.0001) ctrl-wet 6: no recs for i =    73           0
(PID.TID 0000.0001) ctrl-wet 6: no recs for i =    74           0
(PID.TID 0000.0001) ctrl-wet 6: no recs for i =    75           0
(PID.TID 0000.0001) ctrl-wet 6: no recs for i =    76           0
(PID.TID 0000.0001) ctrl-wet 6: no recs for i =    77           0
(PID.TID 0000.0001) ctrl-wet 6: no recs for i =    78           0
(PID.TID 0000.0001) ctrl-wet 6: no recs for i =    79           0
(PID.TID 0000.0001) ctrl-wet 6: no recs for i =    80           0
(PID.TID 0000.0001) ctrl-wet 6: no recs for i =    81           0
(PID.TID 0000.0001) ctrl-wet 6: no recs for i =    82           0
(PID.TID 0000.0001) ctrl-wet 6: no recs for i =    83           0
(PID.TID 0000.0001) ctrl-wet 6: no recs for i =    84           0
(PID.TID 0000.0001) ctrl-wet 6: no recs for i =    85           0
(PID.TID 0000.0001) ctrl-wet 6: no recs for i =    86           0
(PID.TID 0000.0001) ctrl-wet 6: no recs for i =    87           0
(PID.TID 0000.0001) ctrl-wet 6: no recs for i =    88           0
(PID.TID 0000.0001) ctrl-wet 6: no recs for i =    89           0
(PID.TID 0000.0001) ctrl-wet 6: no recs for i =    90           0
(PID.TID 0000.0001) ctrl-wet 6: no recs for i =    91           0
(PID.TID 0000.0001) ctrl-wet 6: no recs for i =    92           0
(PID.TID 0000.0001) ctrl-wet 6: no recs for i =    93           0
(PID.TID 0000.0001) ctrl-wet 6: no recs for i =    94           0
(PID.TID 0000.0001) ctrl-wet 6: no recs for i =    95           0
(PID.TID 0000.0001) ctrl-wet 6: no recs for i =    96           0
(PID.TID 0000.0001) ctrl-wet 6: no recs for i =    97           0
(PID.TID 0000.0001) ctrl-wet 6: no recs for i =    98           0
(PID.TID 0000.0001) ctrl-wet 6: no recs for i =    99           0
(PID.TID 0000.0001) ctrl-wet 6: no recs for i =   100           0
(PID.TID 0000.0001) ctrl-wet 6: no recs for i =   101           0
(PID.TID 0000.0001) ctrl-wet 6: no recs for i =   102           0
(PID.TID 0000.0001) ctrl-wet 6: no recs for i =   103           0
(PID.TID 0000.0001) ctrl-wet 6: no recs for i =   104           0
(PID.TID 0000.0001) ctrl-wet 6: no recs for i =   105           0
(PID.TID 0000.0001) ctrl-wet 6: no recs for i =   106           0
(PID.TID 0000.0001) ctrl-wet 6: no recs for i =   107           0
(PID.TID 0000.0001) ctrl-wet 6: no recs for i =   108           0
(PID.TID 0000.0001) ctrl-wet 6: no recs for i =   109           0
(PID.TID 0000.0001) ctrl-wet 6: no recs for i =   110           0
(PID.TID 0000.0001) ctrl-wet 6: no recs for i =   111           0
(PID.TID 0000.0001) ctrl-wet 6: no recs for i =   112           0
(PID.TID 0000.0001) ctrl-wet 6: no recs for i =   113           0
(PID.TID 0000.0001) ctrl-wet 6: no recs for i =   114           0
(PID.TID 0000.0001) ctrl-wet 6: no recs for i =   115           0
(PID.TID 0000.0001) ctrl-wet 6: no recs for i =   116           0
(PID.TID 0000.0001) ctrl-wet 6: no recs for i =   117           0
(PID.TID 0000.0001) ctrl-wet 6: no recs for i =   118           0
(PID.TID 0000.0001) ctrl-wet 6: no recs for i =   119           0
(PID.TID 0000.0001) ctrl-wet 6: no recs for i =   120           0
(PID.TID 0000.0001) ctrl-wet 6: no recs for i =   121           0
(PID.TID 0000.0001) ctrl-wet 6: no recs for i =   122           0
(PID.TID 0000.0001) ctrl-wet 6: no recs for i =   123           0
(PID.TID 0000.0001) ctrl-wet 6: no recs for i =   124           0
(PID.TID 0000.0001) ctrl-wet 6: no recs for i =   125           0
(PID.TID 0000.0001) ctrl-wet 6: no recs for i =   126           0
(PID.TID 0000.0001) ctrl-wet 6: no recs for i =   127           0
(PID.TID 0000.0001) ctrl-wet 6: no recs for i =   128           0
(PID.TID 0000.0001) ctrl-wet 6: no recs for i =   129           0
(PID.TID 0000.0001) ctrl-wet 6: no recs for i =   130           0
(PID.TID 0000.0001) ctrl-wet 6: no recs for i =   131           0
(PID.TID 0000.0001) ctrl-wet 6: no recs for i =   132           0
(PID.TID 0000.0001) ctrl-wet 6: no recs for i =   133           0
(PID.TID 0000.0001) ctrl-wet 6: no recs for i =   134           0
(PID.TID 0000.0001) ctrl-wet 6: no recs for i =   135           0
(PID.TID 0000.0001) ctrl-wet 6: no recs for i =   136           0
(PID.TID 0000.0001) ctrl-wet 6: no recs for i =   137           0
(PID.TID 0000.0001) ctrl-wet 6: no recs for i =   138           0
(PID.TID 0000.0001) ctrl-wet 6: no recs for i =   139           0
(PID.TID 0000.0001) ctrl-wet 6: no recs for i =   140           0
(PID.TID 0000.0001) ctrl-wet 6: no recs for i =   141           0
(PID.TID 0000.0001) ctrl-wet 6: no recs for i =   142           0
(PID.TID 0000.0001) ctrl-wet 6: no recs for i =   143           0
(PID.TID 0000.0001) ctrl-wet 6: no recs for i =   144           0
(PID.TID 0000.0001) ctrl-wet 6: no recs for i =   145           0
(PID.TID 0000.0001) ctrl-wet 6: no recs for i =   146           0
(PID.TID 0000.0001) ctrl-wet 6: no recs for i =   147           0
(PID.TID 0000.0001) ctrl-wet 6: no recs for i =   148           0
(PID.TID 0000.0001) ctrl-wet 6: no recs for i =   149           0
(PID.TID 0000.0001) ctrl-wet 6: no recs for i =   150           0
(PID.TID 0000.0001) ctrl-wet 6: no recs for i =   151           0
(PID.TID 0000.0001) ctrl-wet 6: no recs for i =   152           0
(PID.TID 0000.0001) ctrl-wet 6: no recs for i =   153           0
(PID.TID 0000.0001) ctrl-wet 6: no recs for i =   154           0
(PID.TID 0000.0001) ctrl-wet 6: no recs for i =   155           0
(PID.TID 0000.0001) ctrl-wet 6: no recs for i =   156           0
(PID.TID 0000.0001) ctrl-wet 6: no recs for i =   157           0
(PID.TID 0000.0001) ctrl-wet 6: no recs for i =   158           0
(PID.TID 0000.0001) ctrl-wet 6: no recs for i =   159           0
(PID.TID 0000.0001) ctrl-wet 6: no recs for i =   160           0
(PID.TID 0000.0001) ctrl-wet 6: no recs for i =   161           0
(PID.TID 0000.0001) ctrl-wet 6: no recs for i =   162           0
(PID.TID 0000.0001) ctrl-wet 6: no recs for i =   163           0
(PID.TID 0000.0001) ctrl-wet 6: no recs for i =   164           0
(PID.TID 0000.0001) ctrl-wet 6: no recs for i =   165           0
(PID.TID 0000.0001) ctrl-wet 6: no recs for i =   166           0
(PID.TID 0000.0001) ctrl-wet 6: no recs for i =   167           0
(PID.TID 0000.0001) ctrl-wet 6: no recs for i =   168           0
(PID.TID 0000.0001) ctrl-wet 6: no recs for i =   169           0
(PID.TID 0000.0001) ctrl-wet 6: no recs for i =   170           0
(PID.TID 0000.0001) ctrl-wet 6: no recs for i =   171           0
(PID.TID 0000.0001) ctrl-wet 6: no recs for i =   172           0
(PID.TID 0000.0001) ctrl-wet 6: no recs for i =   173           0
(PID.TID 0000.0001) ctrl-wet 6: no recs for i =   174           0
(PID.TID 0000.0001) ctrl-wet 6: no recs for i =   175           0
(PID.TID 0000.0001) ctrl-wet 6: no recs for i =   176           0
(PID.TID 0000.0001) ctrl-wet 6: no recs for i =   177           0
(PID.TID 0000.0001) ctrl-wet 6: no recs for i =   178           0
(PID.TID 0000.0001) ctrl-wet 6: no recs for i =   179           0
(PID.TID 0000.0001) ctrl-wet 6: no recs for i =   180           0
(PID.TID 0000.0001) ctrl-wet 6: no recs for i =   181           0
(PID.TID 0000.0001) ctrl-wet 6: no recs for i =   182           0
(PID.TID 0000.0001) ctrl-wet 6: no recs for i =   183           0
(PID.TID 0000.0001) ctrl-wet 6: no recs for i =   184           0
(PID.TID 0000.0001) ctrl-wet 6: no recs for i =   185           0
(PID.TID 0000.0001) ctrl-wet 6: no recs for i =   186           0
(PID.TID 0000.0001) ctrl-wet 6: no recs for i =   187           0
(PID.TID 0000.0001) ctrl-wet 6: no recs for i =   188           0
(PID.TID 0000.0001) ctrl-wet 6: no recs for i =   189           0
(PID.TID 0000.0001) ctrl-wet 6: no recs for i =   190           0
(PID.TID 0000.0001) ctrl-wet 6: no recs for i =   191           0
(PID.TID 0000.0001) ctrl-wet 6: no recs for i =   192           0
(PID.TID 0000.0001) ctrl-wet 6: no recs for i =   193           0
(PID.TID 0000.0001) ctrl-wet 6: no recs for i =   194           0
(PID.TID 0000.0001) ctrl-wet 6: no recs for i =   195           0
(PID.TID 0000.0001) ctrl-wet 6: no recs for i =   196           0
(PID.TID 0000.0001) ctrl-wet 6: no recs for i =   197           0
(PID.TID 0000.0001) ctrl-wet 6: no recs for i =   198           0
(PID.TID 0000.0001) ctrl-wet 6: no recs for i =   199           0
(PID.TID 0000.0001) ctrl-wet 6: no recs for i =   200           0
(PID.TID 0000.0001) ctrl-wet 6: no recs for i =   201           0
(PID.TID 0000.0001) ctrl-wet 6: no recs for i =   202           0
(PID.TID 0000.0001) ctrl-wet 6: no recs for i =   203           0
(PID.TID 0000.0001) ctrl-wet 6: no recs for i =   204           0
(PID.TID 0000.0001) ctrl-wet 6: no recs for i =   205           0
(PID.TID 0000.0001) ctrl-wet 6: no recs for i =   206           0
(PID.TID 0000.0001) ctrl-wet 6: no recs for i =   207           0
(PID.TID 0000.0001) ctrl-wet 6: no recs for i =   208           0
(PID.TID 0000.0001) ctrl-wet 6: no recs for i =   209           0
(PID.TID 0000.0001) ctrl-wet 6: no recs for i =   210           0
(PID.TID 0000.0001) ctrl-wet 6: no recs for i =   211           0
(PID.TID 0000.0001) ctrl-wet 6: no recs for i =   212           0
(PID.TID 0000.0001) ctrl-wet 6: no recs for i =   213           0
(PID.TID 0000.0001) ctrl-wet 6: no recs for i =   214           0
(PID.TID 0000.0001) ctrl-wet 6: no recs for i =   215           0
(PID.TID 0000.0001) ctrl-wet 6: no recs for i =   216           0
(PID.TID 0000.0001) ctrl-wet 6: no recs for i =   217           0
(PID.TID 0000.0001) ctrl-wet 6: no recs for i =   218           0
(PID.TID 0000.0001) ctrl-wet 6: no recs for i =   219           0
(PID.TID 0000.0001) ctrl-wet 6: no recs for i =   220           0
(PID.TID 0000.0001) ctrl-wet 6: no recs for i =   221           0
(PID.TID 0000.0001) ctrl-wet 6: no recs for i =   222           0
(PID.TID 0000.0001) ctrl-wet 6: no recs for i =   223           0
(PID.TID 0000.0001) ctrl-wet 6: no recs for i =   224           0
(PID.TID 0000.0001) ctrl-wet 6: no recs for i =   225           0
(PID.TID 0000.0001) ctrl-wet 6: no recs for i =   226           0
(PID.TID 0000.0001) ctrl-wet 6: no recs for i =   227           0
(PID.TID 0000.0001) ctrl-wet 6: no recs for i =   228           0
(PID.TID 0000.0001) ctrl-wet 6: no recs for i =   229           0
(PID.TID 0000.0001) ctrl-wet 6: no recs for i =   230           0
(PID.TID 0000.0001) ctrl-wet 6: no recs for i =   231           0
(PID.TID 0000.0001) ctrl-wet 6: no recs for i =   232           0
(PID.TID 0000.0001) ctrl-wet 6: no recs for i =   233           0
(PID.TID 0000.0001) ctrl-wet 6: no recs for i =   234           0
(PID.TID 0000.0001) ctrl-wet 6: no recs for i =   235           0
(PID.TID 0000.0001) ctrl-wet 6: no recs for i =   236           0
(PID.TID 0000.0001) ctrl-wet 6: no recs for i =   237           0
(PID.TID 0000.0001) ctrl-wet 6: no recs for i =   238           0
(PID.TID 0000.0001) ctrl-wet 6: no recs for i =   239           0
(PID.TID 0000.0001) ctrl-wet 6: no recs for i =   240           0
(PID.TID 0000.0001) ctrl-wet 6: no recs for i =   241           0
(PID.TID 0000.0001) ctrl-wet 6: no recs for i =   242           0
(PID.TID 0000.0001) ctrl-wet 6: no recs for i =   243           0
(PID.TID 0000.0001) ctrl-wet 6: no recs for i =   244           0
(PID.TID 0000.0001) ctrl-wet 6: no recs for i =   245           0
(PID.TID 0000.0001) ctrl-wet 6: no recs for i =   246           0
(PID.TID 0000.0001) ctrl-wet 6: no recs for i =   247           0
(PID.TID 0000.0001) ctrl-wet 6: no recs for i =   248           0
(PID.TID 0000.0001) ctrl-wet 6: no recs for i =   249           0
(PID.TID 0000.0001) ctrl-wet 6: no recs for i =   250           0
(PID.TID 0000.0001) ctrl-wet 6: no recs for i =   251           0
(PID.TID 0000.0001) ctrl-wet 6: no recs for i =   252           0
(PID.TID 0000.0001) ctrl-wet 6: no recs for i =   253           0
(PID.TID 0000.0001) ctrl-wet 6: no recs for i =   254           0
(PID.TID 0000.0001) ctrl-wet 6: no recs for i =   255           0
(PID.TID 0000.0001) ctrl-wet 6: no recs for i =   256           0
(PID.TID 0000.0001) ctrl-wet 6: no recs for i =   257           0
(PID.TID 0000.0001) ctrl-wet 6: no recs for i =   258           0
(PID.TID 0000.0001) ctrl-wet 6: no recs for i =   259           0
(PID.TID 0000.0001) ctrl-wet 6: no recs for i =   260           0
(PID.TID 0000.0001) ctrl-wet 6: no recs for i =   261           0
(PID.TID 0000.0001) ctrl-wet 6: no recs for i =   262           0
(PID.TID 0000.0001) ctrl-wet 6: no recs for i =   263           0
(PID.TID 0000.0001) ctrl-wet 6: no recs for i =   264           0
(PID.TID 0000.0001) ctrl-wet 6: no recs for i =   265           0
(PID.TID 0000.0001) ctrl-wet 6: no recs for i =   266           0
(PID.TID 0000.0001) ctrl-wet 6: no recs for i =   267           0
(PID.TID 0000.0001) ctrl-wet 6: no recs for i =   268           0
(PID.TID 0000.0001) ctrl-wet 6: no recs for i =   269           0
(PID.TID 0000.0001) ctrl-wet 6: no recs for i =   270           0
(PID.TID 0000.0001) ctrl-wet 6: no recs for i =   271           0
(PID.TID 0000.0001) ctrl-wet 6: no recs for i =   272           0
(PID.TID 0000.0001) ctrl-wet 6: no recs for i =   273           0
(PID.TID 0000.0001) ctrl-wet 6: no recs for i =   274           0
(PID.TID 0000.0001) ctrl-wet 6: no recs for i =   275           0
(PID.TID 0000.0001) ctrl-wet 6: no recs for i =   276           0
(PID.TID 0000.0001) ctrl-wet 6: no recs for i =   277           0
(PID.TID 0000.0001) ctrl-wet 6: no recs for i =   278           0
(PID.TID 0000.0001) ctrl-wet 6: no recs for i =   279           0
(PID.TID 0000.0001) ctrl-wet 6: no recs for i =   280           0
(PID.TID 0000.0001) ctrl-wet 6: no recs for i =   281           0
(PID.TID 0000.0001) ctrl-wet 6: no recs for i =   282           0
(PID.TID 0000.0001) ctrl-wet 6: no recs for i =   283           0
(PID.TID 0000.0001) ctrl-wet 6: no recs for i =   284           0
(PID.TID 0000.0001) ctrl-wet 6: no recs for i =   285           0
(PID.TID 0000.0001) ctrl-wet 6: no recs for i =   286           0
(PID.TID 0000.0001) ctrl-wet 6: no recs for i =   287           0
(PID.TID 0000.0001) ctrl-wet 6: no recs for i =   288           0
(PID.TID 0000.0001) ctrl-wet 6: no recs for i =   289           0
(PID.TID 0000.0001) ctrl-wet 6: no recs for i =   290           0
(PID.TID 0000.0001) ctrl-wet 6: no recs for i =   291           0
(PID.TID 0000.0001) ctrl-wet 6: no recs for i =   292           0
(PID.TID 0000.0001) ctrl-wet 6: no recs for i =   293           0
(PID.TID 0000.0001) ctrl-wet 6: no recs for i =   294           0
(PID.TID 0000.0001) ctrl-wet 6: no recs for i =   295           0
(PID.TID 0000.0001) ctrl-wet 6: no recs for i =   296           0
(PID.TID 0000.0001) ctrl-wet 6: no recs for i =   297           0
(PID.TID 0000.0001) ctrl-wet 6: no recs for i =   298           0
(PID.TID 0000.0001) ctrl-wet 6: no recs for i =   299           0
(PID.TID 0000.0001) ctrl-wet 6: no recs for i =   300           0
(PID.TID 0000.0001) ctrl-wet 6: no recs for i =   301          11
(PID.TID 0000.0001) ctrl-wet 6: no recs for i =   302           0
(PID.TID 0000.0001) ctrl-wet 6: no recs for i =   303           0
(PID.TID 0000.0001) ctrl-wet 6: no recs for i =   304           0
(PID.TID 0000.0001) ctrl-wet 6: no recs for i =   305           0
(PID.TID 0000.0001) ctrl-wet 6: no recs for i =   306           0
(PID.TID 0000.0001) ctrl-wet 6: no recs for i =   307           0
(PID.TID 0000.0001) ctrl-wet 6: no recs for i =   308           0
(PID.TID 0000.0001) ctrl-wet 6: no recs for i =   309           0
(PID.TID 0000.0001) ctrl-wet 6: no recs for i =   310           0
(PID.TID 0000.0001) ctrl-wet 6: no recs for i =   311           0
(PID.TID 0000.0001) ctrl-wet 6: no recs for i =   312           0
(PID.TID 0000.0001) ctrl-wet 6: no recs for i =   313           0
(PID.TID 0000.0001) ctrl-wet 6: no recs for i =   314           0
(PID.TID 0000.0001) ctrl-wet 6: no recs for i =   315           0
(PID.TID 0000.0001) ctrl-wet 6: no recs for i =   316           0
(PID.TID 0000.0001) ctrl-wet 6: no recs for i =   317           0
(PID.TID 0000.0001) ctrl-wet 6: no recs for i =   318           0
(PID.TID 0000.0001) ctrl-wet 6: no recs for i =   319           0
(PID.TID 0000.0001) ctrl-wet 6: no recs for i =   320           0
(PID.TID 0000.0001) ctrl-wet 6: no recs for i =   321           0
(PID.TID 0000.0001) ctrl-wet 6: no recs for i =   322           0
(PID.TID 0000.0001) ctrl-wet 6: no recs for i =   323           0
(PID.TID 0000.0001) ctrl-wet 6: no recs for i =   324           0
(PID.TID 0000.0001) ctrl-wet 6: no recs for i =   325           0
(PID.TID 0000.0001) ctrl-wet 6: no recs for i =   326           0
(PID.TID 0000.0001) ctrl-wet 6: no recs for i =   327           0
(PID.TID 0000.0001) ctrl-wet 6: no recs for i =   328           0
(PID.TID 0000.0001) ctrl-wet 6: no recs for i =   329           0
(PID.TID 0000.0001) ctrl-wet 6: no recs for i =   330           0
(PID.TID 0000.0001) ctrl-wet 6: no recs for i =   331           0
(PID.TID 0000.0001) ctrl-wet 6: no recs for i =   332           0
(PID.TID 0000.0001) ctrl-wet 6: no recs for i =   333           0
(PID.TID 0000.0001) ctrl-wet 6: no recs for i =   334           0
(PID.TID 0000.0001) ctrl-wet 6: no recs for i =   335           0
(PID.TID 0000.0001) ctrl-wet 6: no recs for i =   336           0
(PID.TID 0000.0001) ctrl-wet 6: no recs for i =   337           0
(PID.TID 0000.0001) ctrl-wet 6: no recs for i =   338           0
(PID.TID 0000.0001) ctrl-wet 6: no recs for i =   339           0
(PID.TID 0000.0001) ctrl-wet 6: no recs for i =   340           0
(PID.TID 0000.0001) ctrl-wet 6: no recs for i =   341           0
(PID.TID 0000.0001) ctrl-wet 6: no recs for i =   342           0
(PID.TID 0000.0001) ctrl-wet 6: no recs for i =   343           0
(PID.TID 0000.0001) ctrl-wet 6: no recs for i =   344           0
(PID.TID 0000.0001) ctrl-wet 6: no recs for i =   345           0
(PID.TID 0000.0001) ctrl-wet 6: no recs for i =   346           0
(PID.TID 0000.0001) ctrl-wet 6: no recs for i =   347           0
(PID.TID 0000.0001) ctrl-wet 6: no recs for i =   348           0
(PID.TID 0000.0001) ctrl-wet 6: no recs for i =   349           0
(PID.TID 0000.0001) ctrl-wet 6: no recs for i =   350           0
(PID.TID 0000.0001) ctrl-wet 6: no recs for i =   351           0
(PID.TID 0000.0001) ctrl-wet 6: no recs for i =   352           0
(PID.TID 0000.0001) ctrl-wet 6: no recs for i =   353           0
(PID.TID 0000.0001) ctrl-wet 6: no recs for i =   354           0
(PID.TID 0000.0001) ctrl-wet 6: no recs for i =   355           0
(PID.TID 0000.0001) ctrl-wet 6: no recs for i =   356           0
(PID.TID 0000.0001) ctrl-wet 6: no recs for i =   357           0
(PID.TID 0000.0001) ctrl-wet 6: no recs for i =   358           0
(PID.TID 0000.0001) ctrl-wet 6: no recs for i =   359           0
(PID.TID 0000.0001) ctrl-wet 6: no recs for i =   360           0
(PID.TID 0000.0001) ctrl-wet 6: no recs for i =   361           0
(PID.TID 0000.0001) ctrl-wet 6: no recs for i =   362           0
(PID.TID 0000.0001) ctrl-wet 6: no recs for i =   363           0
(PID.TID 0000.0001) ctrl-wet 6: no recs for i =   364           0
(PID.TID 0000.0001) ctrl-wet 6: no recs for i =   365           0
(PID.TID 0000.0001) ctrl-wet 6: no recs for i =   366           0
(PID.TID 0000.0001) ctrl-wet 6: no recs for i =   367           0
(PID.TID 0000.0001) ctrl-wet 6: no recs for i =   368           0
(PID.TID 0000.0001) ctrl-wet 6: no recs for i =   369           0
(PID.TID 0000.0001) ctrl-wet 6: no recs for i =   370           0
(PID.TID 0000.0001) ctrl-wet 6: no recs for i =   371           0
(PID.TID 0000.0001) ctrl-wet 6: no recs for i =   372           0
(PID.TID 0000.0001) ctrl-wet 6: no recs for i =   373           0
(PID.TID 0000.0001) ctrl-wet 6: no recs for i =   374           0
(PID.TID 0000.0001) ctrl-wet 6: no recs for i =   375           0
(PID.TID 0000.0001) ctrl-wet 6: no recs for i =   376           0
(PID.TID 0000.0001) ctrl-wet 6: no recs for i =   377           0
(PID.TID 0000.0001) ctrl-wet 6: no recs for i =   378           0
(PID.TID 0000.0001) ctrl-wet 6: no recs for i =   379           0
(PID.TID 0000.0001) ctrl-wet 6: no recs for i =   380           0
(PID.TID 0000.0001) ctrl-wet 6: no recs for i =   381           0
(PID.TID 0000.0001) ctrl-wet 6: no recs for i =   382           0
(PID.TID 0000.0001) ctrl-wet 6: no recs for i =   383           0
(PID.TID 0000.0001) ctrl-wet 6: no recs for i =   384           0
(PID.TID 0000.0001) ctrl-wet 6: no recs for i =   385           0
(PID.TID 0000.0001) ctrl-wet 6: no recs for i =   386           0
(PID.TID 0000.0001) ctrl-wet 6: no recs for i =   387           0
(PID.TID 0000.0001) ctrl-wet 6: no recs for i =   388           0
(PID.TID 0000.0001) ctrl-wet 6: no recs for i =   389           0
(PID.TID 0000.0001) ctrl-wet 6: no recs for i =   390           0
(PID.TID 0000.0001) ctrl-wet 6: no recs for i =   391           0
(PID.TID 0000.0001) ctrl-wet 6: no recs for i =   392           0
(PID.TID 0000.0001) ctrl-wet 6: no recs for i =   393           0
(PID.TID 0000.0001) ctrl-wet 6: no recs for i =   394           0
(PID.TID 0000.0001) ctrl-wet 6: no recs for i =   395           0
(PID.TID 0000.0001) ctrl-wet 6: no recs for i =   396           0
(PID.TID 0000.0001) ctrl-wet 6: no recs for i =   397           0
(PID.TID 0000.0001) ctrl-wet 6: no recs for i =   398           0
(PID.TID 0000.0001) ctrl-wet 6: no recs for i =   399           0
(PID.TID 0000.0001) ctrl-wet 6: no recs for i =   400           0
(PID.TID 0000.0001) ctrl-wet 7: flux          3720
(PID.TID 0000.0001) ctrl-wet 8: atmos         3720
(PID.TID 0000.0001) ctrl-wet -------------------------------------------------
(PID.TID 0000.0001) ctrl-wet 13: global nvarlength for Nr =   23        1650
(PID.TID 0000.0001) ctrl-wet -------------------------------------------------
(PID.TID 0000.0001) ctrl-wet 14: global nWet C/S/W/V k=    1         150         120         129           0
(PID.TID 0000.0001) ctrl-wet 14: global nWet C/S/W/V k=    2         150         120         129           0
(PID.TID 0000.0001) ctrl-wet 14: global nWet C/S/W/V k=    3         150         120         129           0
(PID.TID 0000.0001) ctrl-wet 14: global nWet C/S/W/V k=    4         150         120         129           0
(PID.TID 0000.0001) ctrl-wet 14: global nWet C/S/W/V k=    5         145         116         125           0
(PID.TID 0000.0001) ctrl-wet 14: global nWet C/S/W/V k=    6         140         112         119           0
(PID.TID 0000.0001) ctrl-wet 14: global nWet C/S/W/V k=    7         133         104         111           0
(PID.TID 0000.0001) ctrl-wet 14: global nWet C/S/W/V k=    8         126          98         106           0
(PID.TID 0000.0001) ctrl-wet 14: global nWet C/S/W/V k=    9         115          89          95           0
(PID.TID 0000.0001) ctrl-wet 14: global nWet C/S/W/V k=   10          99          77          82           0
(PID.TID 0000.0001) ctrl-wet 14: global nWet C/S/W/V k=   11          90          68          73           0
(PID.TID 0000.0001) ctrl-wet 14: global nWet C/S/W/V k=   12          82          62          66           0
(PID.TID 0000.0001) ctrl-wet 14: global nWet C/S/W/V k=   13          71          54          57           0
(PID.TID 0000.0001) ctrl-wet 14: global nWet C/S/W/V k=   14          68          52          54           0
(PID.TID 0000.0001) ctrl-wet 14: global nWet C/S/W/V k=   15          58          44          45           0
(PID.TID 0000.0001) ctrl-wet 14: global nWet C/S/W/V k=   16          50          40          40           0
(PID.TID 0000.0001) ctrl-wet 14: global nWet C/S/W/V k=   17          40          31          31           0
(PID.TID 0000.0001) ctrl-wet 14: global nWet C/S/W/V k=   18          30          22          23           0
(PID.TID 0000.0001) ctrl-wet 14: global nWet C/S/W/V k=   19          10           6           6           0
(PID.TID 0000.0001) ctrl-wet 14: global nWet C/S/W/V k=   20           3           2           0           0
(PID.TID 0000.0001) ctrl-wet 14: global nWet C/S/W/V k=   21           0           0           0           0
(PID.TID 0000.0001) ctrl-wet 14: global nWet C/S/W/V k=   22           0           0           0           0
(PID.TID 0000.0001) ctrl-wet 14: global nWet C/S/W/V k=   23           0           0           0           0
(PID.TID 0000.0001) ctrl-wet -------------------------------------------------
(PID.TID 0000.0001) ctrl-wet -------------------------------------------------
(PID.TID 0000.0001) ctrl-wet -------------------------------------------------
(PID.TID 0000.0001) ctrl_init_wet: no. of control variables:            1
(PID.TID 0000.0001) ctrl_init_wet: control vector length:            1650
(PID.TID 0000.0001)  MDS_WRITE_FIELD: it,rec,kS,kL,kH=       0     1  23   1  23 file=maskCtrlC
(PID.TID 0000.0001)  MDS_WRITE_FIELD: it,rec,kS,kL,kH=       0     1  23   1  23 file=maskCtrlW
(PID.TID 0000.0001)  MDS_WRITE_FIELD: it,rec,kS,kL,kH=       0     1  23   1  23 file=maskCtrlS
(PID.TID 0000.0001) 
(PID.TID 0000.0001) // =======================================================
(PID.TID 0000.0001) // control vector configuration  >>> START <<<
(PID.TID 0000.0001) // =======================================================
(PID.TID 0000.0001) 
(PID.TID 0000.0001)  Total number of ocean points per tile:
(PID.TID 0000.0001)  --------------------------------------
(PID.TID 0000.0001)  snx*sny*nr =     7360
(PID.TID 0000.0001) 
(PID.TID 0000.0001)  Number of ocean points per tile:
(PID.TID 0000.0001)  --------------------------------
(PID.TID 0000.0001)  bi,bj,#(c/s/w): 0001 0001 001860 001457 001549
(PID.TID 0000.0001) 
(PID.TID 0000.0001)  Settings of generic controls:
(PID.TID 0000.0001)  -----------------------------
(PID.TID 0000.0001) 
(PID.TID 0000.0001)  -> time variable 2D control, gentim2d no.  1 is in use
(PID.TID 0000.0001)       file       = xx_atemp
(PID.TID 0000.0001)       weight     = ones_64b.bin
(PID.TID 0000.0001)       index      =  0301
(PID.TID 0000.0001)       ncvarindex =  0401
(PID.TID 0000.0001)       period     =  00000000 010000
(PID.TID 0000.0001)       preprocess = noscaling
(PID.TID 0000.0001) 
(PID.TID 0000.0001) // =======================================================
(PID.TID 0000.0001) // control vector configuration  >>> END <<<
(PID.TID 0000.0001) // =======================================================
(PID.TID 0000.0001) 
(PID.TID 0000.0001) ------------------------------------------------------------
(PID.TID 0000.0001) DIAGNOSTICS_SET_LEVELS: done
(PID.TID 0000.0001)  Total Nb of available Diagnostics: ndiagt=   375
(PID.TID 0000.0001)  write list of available Diagnostics to file: available_diagnostics.log
(PID.TID 0000.0001) SETDIAG: Allocate  1 x  1 Levels for Diagnostic #    23 ETAN
(PID.TID 0000.0001) SETDIAG: Allocate  1 x  1 Levels for Diagnostic #   294 SIarea
(PID.TID 0000.0001) SETDIAG: Allocate  1 x  1 Levels for Diagnostic #   297 SIheff
(PID.TID 0000.0001) SETDIAG: Allocate  1 x  1 Levels for Diagnostic #   299 SIhsnow
(PID.TID 0000.0001) SETDIAG: Allocate  1 x  1 Levels for Diagnostic #    25 DETADT2
(PID.TID 0000.0001) SETDIAG: Allocate  1 x  1 Levels for Diagnostic #    73 PHIBOT
(PID.TID 0000.0001) SETDIAG: Allocate  1 x  1 Levels for Diagnostic #    82 sIceLoad
(PID.TID 0000.0001) SETDIAG: Allocate  1 x  1 Levels for Diagnostic #    76 MXLDEPTH
(PID.TID 0000.0001) SETDIAG: Allocate  1 x  1 Levels for Diagnostic #   325 SIatmFW
(PID.TID 0000.0001) SETDIAG: Allocate  1 x  1 Levels for Diagnostic #    85 oceQnet
(PID.TID 0000.0001) SETDIAG: Allocate  1 x  1 Levels for Diagnostic #    83 oceFWflx
(PID.TID 0000.0001) SETDIAG: Allocate  1 x  1 Levels for Diagnostic #    79 oceTAUX
(PID.TID 0000.0001) SETDIAG: Allocate  1 x  1 Levels for Diagnostic #    80 oceTAUY
(PID.TID 0000.0001) SETDIAG: Allocate  1 x  1 Levels for Diagnostic #   311 SIuice
(PID.TID 0000.0001) SETDIAG: Allocate  1 x  1 Levels for Diagnostic #   312 SIvice
(PID.TID 0000.0001) SETDIAG: Allocate  1 x  1 Levels for Diagnostic #    24 ETANSQ
(PID.TID 0000.0001) SETDIAG: Allocate 23 x  1 Levels for Diagnostic #    26 THETA
(PID.TID 0000.0001) SETDIAG: Allocate 23 x  1 Levels for Diagnostic #    27 SALT
(PID.TID 0000.0001) SETDIAG: Allocate 23 x  1 Levels for Diagnostic #    45 UVELMASS
(PID.TID 0000.0001) SETDIAG: Allocate 23 x  1 Levels for Diagnostic #    46 VVELMASS
(PID.TID 0000.0001) SETDIAG: Allocate  1 x  1 Levels for Diagnostic #   224 EXFpreci
(PID.TID 0000.0001) SETDIAG: Allocate  1 x  1 Levels for Diagnostic #   223 EXFevap
(PID.TID 0000.0001) SETDIAG: Allocate  1 x  1 Levels for Diagnostic #   228 EXFroff
(PID.TID 0000.0001) SETDIAG: Allocate  1 x  1 Levels for Diagnostic #   226 EXFempmr
(PID.TID 0000.0001) SETDIAG: Allocate  1 x  1 Levels for Diagnostic #   212 EXFswdn
(PID.TID 0000.0001) SETDIAG: Allocate  1 x  1 Levels for Diagnostic #   211 EXFlwdn
(PID.TID 0000.0001) SETDIAG: Allocate  1 x  1 Levels for Diagnostic #   210 EXFswnet
(PID.TID 0000.0001) SETDIAG: Allocate  1 x  1 Levels for Diagnostic #   209 EXFlwnet
(PID.TID 0000.0001) SETDIAG: Allocate  1 x  1 Levels for Diagnostic #   213 EXFqnet
(PID.TID 0000.0001) SETDIAG: Allocate  1 x  1 Levels for Diagnostic #   221 EXFatemp
(PID.TID 0000.0001) SETDIAG: Allocate  1 x  1 Levels for Diagnostic #   222 EXFaqh
(PID.TID 0000.0001) SETDIAG: Allocate  1 x  1 Levels for Diagnostic #   214 EXFtaux
(PID.TID 0000.0001) SETDIAG: Allocate  1 x  1 Levels for Diagnostic #   215 EXFtauy
(PID.TID 0000.0001) SETDIAG: Allocate  1 x  1 Levels for Diagnostic #   216 EXFuwind
(PID.TID 0000.0001) SETDIAG: Allocate  1 x  1 Levels for Diagnostic #   217 EXFvwind
(PID.TID 0000.0001) SETDIAG: Allocate  1 x  1 Levels for Diagnostic #   227 EXFpress
(PID.TID 0000.0001) SETDIAG: Allocate  1 x  1 Levels for Diagnostic #   207 EXFhs
(PID.TID 0000.0001) SETDIAG: Allocate  1 x  1 Levels for Diagnostic #   208 EXFhl
(PID.TID 0000.0001)   space allocated for all diagnostics:     126 levels
(PID.TID 0000.0001)   set mate pointer for diag #    79  oceTAUX  , Parms: UU      U1 , mate:    80
(PID.TID 0000.0001)   set mate pointer for diag #    80  oceTAUY  , Parms: VV      U1 , mate:    79
(PID.TID 0000.0001)   set mate pointer for diag #   311  SIuice   , Parms: UU      M1 , mate:   312
(PID.TID 0000.0001)   set mate pointer for diag #   312  SIvice   , Parms: VV      M1 , mate:   311
(PID.TID 0000.0001)   set mate pointer for diag #    45  UVELMASS , Parms: UUr     MR , mate:    46
(PID.TID 0000.0001)   set mate pointer for diag #    46  VVELMASS , Parms: VVr     MR , mate:    45
(PID.TID 0000.0001) DIAGNOSTICS_SET_POINTERS: Set levels for Outp.Stream: diags/state_2d_set1
(PID.TID 0000.0001)  Levels:       1.
(PID.TID 0000.0001) DIAGNOSTICS_SET_POINTERS: Set levels for Outp.Stream: diags/state_3d_set1
(PID.TID 0000.0001)  Levels:       1.   2.   3.   4.   5.   6.   7.   8.   9.  10.  11.  12.  13.  14.  15.  16.  17.  18.  19.  20.
(PID.TID 0000.0001)  Levels:      21.  22.  23.
(PID.TID 0000.0001) DIAGNOSTICS_SET_POINTERS: Set levels for Outp.Stream: diags/trsp_3d_set1
(PID.TID 0000.0001)  Levels:       1.   2.   3.   4.   5.   6.   7.   8.   9.  10.  11.  12.  13.  14.  15.  16.  17.  18.  19.  20.
(PID.TID 0000.0001)  Levels:      21.  22.  23.
(PID.TID 0000.0001) DIAGNOSTICS_SET_POINTERS: Set levels for Outp.Stream: diags/exf_zflux_set1
(PID.TID 0000.0001)  Levels:       1.
(PID.TID 0000.0001) DIAGNOSTICS_SET_POINTERS: done
(PID.TID 0000.0001) ------------------------------------------------------------
(PID.TID 0000.0001) DIAGSTATS_SET_REGIONS: define no region
(PID.TID 0000.0001) ------------------------------------------------------------
(PID.TID 0000.0001)   space allocated for all stats-diags:       0 levels
(PID.TID 0000.0001) DIAGSTATS_SET_POINTERS: done
(PID.TID 0000.0001) ------------------------------------------------------------
(PID.TID 0000.0001) %MON fCori_max                    =   1.4210453727344E-04
(PID.TID 0000.0001) %MON fCori_min                    =   1.0666243053630E-04
(PID.TID 0000.0001) %MON fCori_mean                   =   1.2711058365303E-04
(PID.TID 0000.0001) %MON fCori_sd                     =   1.1031533875266E-05
(PID.TID 0000.0001) %MON fCoriG_max                   =   1.4151032568025E-04
(PID.TID 0000.0001) %MON fCoriG_min                   =   1.0491029349513E-04
(PID.TID 0000.0001) %MON fCoriG_mean                  =   1.2591168756569E-04
(PID.TID 0000.0001) %MON fCoriG_sd                    =   1.1383815633153E-05
(PID.TID 0000.0001) %MON fCoriCos_max                 =   9.9464325599212E-05
(PID.TID 0000.0001) %MON fCoriCos_min                 =   3.2807417471054E-05
(PID.TID 0000.0001) %MON fCoriCos_mean                =   6.7585896192312E-05
(PID.TID 0000.0001) %MON fCoriCos_sd                  =   2.0576140902612E-05
(PID.TID 0000.0001) INI_CG2D: CG2D normalisation factor =  1.6094939840939192E-04
(PID.TID 0000.0001) 
(PID.TID 0000.0001) // =======================================================
(PID.TID 0000.0001) // Model configuration
(PID.TID 0000.0001) // =======================================================
(PID.TID 0000.0001) //
(PID.TID 0000.0001) // "Physical" paramters ( PARM01 in namelist )
(PID.TID 0000.0001) //
(PID.TID 0000.0001) buoyancyRelation = /* Type of relation to get Buoyancy */
(PID.TID 0000.0001)               'OCEANIC'
(PID.TID 0000.0001)     ;
(PID.TID 0000.0001) fluidIsAir   =  /* fluid major constituent is Air */
(PID.TID 0000.0001)                   F
(PID.TID 0000.0001)     ;
(PID.TID 0000.0001) fluidIsWater =  /* fluid major constituent is Water */
(PID.TID 0000.0001)                   T
(PID.TID 0000.0001)     ;
(PID.TID 0000.0001) usingPCoords =  /* use p (or p*) vertical coordinate */
(PID.TID 0000.0001)                   F
(PID.TID 0000.0001)     ;
(PID.TID 0000.0001) usingZCoords =  /* use z (or z*) vertical coordinate */
(PID.TID 0000.0001)                   T
(PID.TID 0000.0001)     ;
(PID.TID 0000.0001) tRef =   /* Reference temperature profile ( oC or K ) */
(PID.TID 0000.0001)                 2.400000000000000E+01,      /* K =  1 */
(PID.TID 0000.0001)                 2.300000000000000E+01,      /* K =  2 */
(PID.TID 0000.0001)                 2.200000000000000E+01,      /* K =  3 */
(PID.TID 0000.0001)                 2.100000000000000E+01,      /* K =  4 */
(PID.TID 0000.0001)                 2.000000000000000E+01,      /* K =  5 */
(PID.TID 0000.0001)                 1.900000000000000E+01,      /* K =  6 */
(PID.TID 0000.0001)                 1.800000000000000E+01,      /* K =  7 */
(PID.TID 0000.0001)                 1.700000000000000E+01,      /* K =  8 */
(PID.TID 0000.0001)                 1.600000000000000E+01,      /* K =  9 */
(PID.TID 0000.0001)                 1.500000000000000E+01,      /* K = 10 */
(PID.TID 0000.0001)                 1.400000000000000E+01,      /* K = 11 */
(PID.TID 0000.0001)                 1.300000000000000E+01,      /* K = 12 */
(PID.TID 0000.0001)                 1.200000000000000E+01,      /* K = 13 */
(PID.TID 0000.0001)                 1.100000000000000E+01,      /* K = 14 */
(PID.TID 0000.0001)                 1.000000000000000E+01,      /* K = 15 */
(PID.TID 0000.0001)                 9.000000000000000E+00,      /* K = 16 */
(PID.TID 0000.0001)                 8.000000000000000E+00,      /* K = 17 */
(PID.TID 0000.0001)                 7.000000000000000E+00,      /* K = 18 */
(PID.TID 0000.0001)                 6.000000000000000E+00,      /* K = 19 */
(PID.TID 0000.0001)                 5.000000000000000E+00,      /* K = 20 */
(PID.TID 0000.0001)                 4.000000000000000E+00,      /* K = 21 */
(PID.TID 0000.0001)                 3.000000000000000E+00,      /* K = 22 */
(PID.TID 0000.0001)                 2.000000000000000E+00       /* K = 23 */
(PID.TID 0000.0001)     ;
(PID.TID 0000.0001) sRef =   /* Reference salinity profile ( g/kg ) */
(PID.TID 0000.0001)                 3.465000000000000E+01,      /* K =  1 */
(PID.TID 0000.0001)                 3.475000000000000E+01,      /* K =  2 */
(PID.TID 0000.0001)                 3.482000000000000E+01,      /* K =  3 */
(PID.TID 0000.0001)                 3.487000000000000E+01,      /* K =  4 */
(PID.TID 0000.0001)     2 @  3.490000000000000E+01,             /* K =  5:  6 */
(PID.TID 0000.0001)                 3.486000000000000E+01,      /* K =  7 */
(PID.TID 0000.0001)                 3.478000000000000E+01,      /* K =  8 */
(PID.TID 0000.0001)                 3.469000000000000E+01,      /* K =  9 */
(PID.TID 0000.0001)                 3.460000000000000E+01,      /* K = 10 */
(PID.TID 0000.0001)                 3.458000000000000E+01,      /* K = 11 */
(PID.TID 0000.0001)                 3.462000000000000E+01,      /* K = 12 */
(PID.TID 0000.0001)                 3.468000000000000E+01,      /* K = 13 */
(PID.TID 0000.0001)                 3.472000000000000E+01,      /* K = 14 */
(PID.TID 0000.0001)                 3.473000000000000E+01,      /* K = 15 */
(PID.TID 0000.0001)                 3.474000000000000E+01,      /* K = 16 */
(PID.TID 0000.0001)     2 @  3.473000000000000E+01,             /* K = 17: 18 */
(PID.TID 0000.0001)     2 @  3.472000000000000E+01,             /* K = 19: 20 */
(PID.TID 0000.0001)                 3.471000000000000E+01,      /* K = 21 */
(PID.TID 0000.0001)                 3.470000000000000E+01,      /* K = 22 */
(PID.TID 0000.0001)                 3.469000000000000E+01       /* K = 23 */
(PID.TID 0000.0001)     ;
(PID.TID 0000.0001) rhoRef =   /* Density vertical profile from (Ref,sRef)( kg/m^3 ) */
(PID.TID 0000.0001)                 1.023399597669854E+03,      /* K =  1 */
(PID.TID 0000.0001)                 1.023810240320856E+03,      /* K =  2 */
(PID.TID 0000.0001)                 1.024201435647580E+03,      /* K =  3 */
(PID.TID 0000.0001)                 1.024591510588746E+03,      /* K =  4 */
(PID.TID 0000.0001)                 1.024969611150069E+03,      /* K =  5 */
(PID.TID 0000.0001)                 1.025328017199967E+03,      /* K =  6 */
(PID.TID 0000.0001)                 1.025680833282475E+03,      /* K =  7 */
(PID.TID 0000.0001)                 1.026050051489947E+03,      /* K =  8 */
(PID.TID 0000.0001)                 1.026491970185416E+03,      /* K =  9 */
(PID.TID 0000.0001)                 1.027036952689552E+03,      /* K = 10 */
(PID.TID 0000.0001)                 1.027794852671120E+03,      /* K = 11 */
(PID.TID 0000.0001)                 1.028814168587807E+03,      /* K = 12 */
(PID.TID 0000.0001)                 1.030119722650770E+03,      /* K = 13 */
(PID.TID 0000.0001)                 1.031735154401125E+03,      /* K = 14 */
(PID.TID 0000.0001)                 1.033628649568903E+03,      /* K = 15 */
(PID.TID 0000.0001)                 1.035732830613343E+03,      /* K = 16 */
(PID.TID 0000.0001)                 1.037997052952795E+03,      /* K = 17 */
(PID.TID 0000.0001)                 1.040366267417616E+03,      /* K = 18 */
(PID.TID 0000.0001)                 1.042716568158493E+03,      /* K = 19 */
(PID.TID 0000.0001)                 1.045063813536698E+03,      /* K = 20 */
(PID.TID 0000.0001)                 1.047393250130134E+03,      /* K = 21 */
(PID.TID 0000.0001)                 1.049712998140759E+03,      /* K = 22 */
(PID.TID 0000.0001)                 1.052023490263938E+03       /* K = 23 */
(PID.TID 0000.0001)     ;
(PID.TID 0000.0001) dBdrRef = /* Vertical grad. of reference buoyancy [(m/s/r)^2] */
(PID.TID 0000.0001)                 0.000000000000000E+00,      /* K =  1 */
(PID.TID 0000.0001)                 3.513461801096672E-04,      /* K =  2 */
(PID.TID 0000.0001)                 2.578462793867026E-04,      /* K =  3 */
(PID.TID 0000.0001)                 1.716535447918954E-04,      /* K =  4 */
(PID.TID 0000.0001)                 1.391849606744939E-04,      /* K =  5 */
(PID.TID 0000.0001)                 1.106038973987551E-04,      /* K =  6 */
(PID.TID 0000.0001)                 7.062448315028799E-05,      /* K =  7 */
(PID.TID 0000.0001)                 4.112152780686669E-05,      /* K =  8 */
(PID.TID 0000.0001)                 2.554455911799560E-05,      /* K =  9 */
(PID.TID 0000.0001)                 1.739274227427603E-05,      /* K = 10 */
(PID.TID 0000.0001)                 1.573008010125636E-05,      /* K = 11 */
(PID.TID 0000.0001)                 1.341763357458043E-05,      /* K = 12 */
(PID.TID 0000.0001)                 1.029886793911016E-05,      /* K = 13 */
(PID.TID 0000.0001)                 7.244777660794312E-06,      /* K = 14 */
(PID.TID 0000.0001)                 5.291061202791868E-06,      /* K = 15 */
(PID.TID 0000.0001)                 4.668992652371521E-06,      /* K = 16 */
(PID.TID 0000.0001)                 3.952349989520169E-06,      /* K = 17 */
(PID.TID 0000.0001)                 3.937600045035830E-06,      /* K = 18 */
(PID.TID 0000.0001)                 3.833348475309353E-06,      /* K = 19 */
(PID.TID 0000.0001)                 4.027570774400333E-06,      /* K = 20 */
(PID.TID 0000.0001)                 3.935806005392895E-06,      /* K = 21 */
(PID.TID 0000.0001)                 3.995673930141529E-06,      /* K = 22 */
(PID.TID 0000.0001)                 4.061338744769299E-06       /* K = 23 */
(PID.TID 0000.0001)     ;
(PID.TID 0000.0001) useStrainTensionVisc= /* Use StrainTension Form of Viscous Operator */
(PID.TID 0000.0001)                   F
(PID.TID 0000.0001)     ;
(PID.TID 0000.0001) useVariableVisc = /* Use variable horizontal viscosity */
(PID.TID 0000.0001)                   F
(PID.TID 0000.0001)     ;
(PID.TID 0000.0001) useHarmonicVisc = /* Use harmonic horizontal viscosity */
(PID.TID 0000.0001)                   T
(PID.TID 0000.0001)     ;
(PID.TID 0000.0001) useBiharmonicVisc= /* Use biharmonic horiz.  viscosity */
(PID.TID 0000.0001)                   F
(PID.TID 0000.0001)     ;
(PID.TID 0000.0001) useSmag3D = /* Use isotropic 3-D Smagorinsky viscosity */
(PID.TID 0000.0001)                   F
(PID.TID 0000.0001)     ;
(PID.TID 0000.0001) viscAh  =   /* Lateral harmonic viscosity ( m^2/s ) */
(PID.TID 0000.0001)                 5.000000000000000E+04
(PID.TID 0000.0001)     ;
(PID.TID 0000.0001) viscA4  =   /* Lateral biharmonic viscosity ( m^4/s ) */
(PID.TID 0000.0001)                 0.000000000000000E+00
(PID.TID 0000.0001)     ;
(PID.TID 0000.0001) no_slip_sides =  /* Viscous BCs: No-slip sides */
(PID.TID 0000.0001)                   F
(PID.TID 0000.0001)     ;
(PID.TID 0000.0001) sideDragFactor = /* side-drag scaling factor (non-dim) */
(PID.TID 0000.0001)                 2.000000000000000E+00
(PID.TID 0000.0001)     ;
(PID.TID 0000.0001) viscArNr = /* vertical profile of vertical viscosity ( m^2/s )*/
(PID.TID 0000.0001)    23 @  1.930000000000000E-05              /* K =  1: 23 */
(PID.TID 0000.0001)     ;
(PID.TID 0000.0001) no_slip_bottom =  /* Viscous BCs: No-slip bottom */
(PID.TID 0000.0001)                   T
(PID.TID 0000.0001)     ;
(PID.TID 0000.0001) bottomVisc_pCell = /* Partial-cell in bottom Visc. BC */
(PID.TID 0000.0001)                   F
(PID.TID 0000.0001)     ;
(PID.TID 0000.0001) bottomDragLinear = /* linear bottom-drag coefficient ( m/s ) */
(PID.TID 0000.0001)                 0.000000000000000E+00
(PID.TID 0000.0001)     ;
(PID.TID 0000.0001) bottomDragQuadratic = /* quadratic bottom-drag coefficient (-) */
(PID.TID 0000.0001)                 0.000000000000000E+00
(PID.TID 0000.0001)     ;
(PID.TID 0000.0001) selectBotDragQuadr = /* select quadratic bottom drag options */
(PID.TID 0000.0001)                      -1
(PID.TID 0000.0001)     ;
(PID.TID 0000.0001) diffKhT =   /* Laplacian diffusion of heat laterally ( m^2/s ) */
(PID.TID 0000.0001)                 0.000000000000000E+00
(PID.TID 0000.0001)     ;
(PID.TID 0000.0001) diffK4T =   /* Biharmonic diffusion of heat laterally ( m^4/s ) */
(PID.TID 0000.0001)                 0.000000000000000E+00
(PID.TID 0000.0001)     ;
(PID.TID 0000.0001) diffKhS =   /* Laplacian diffusion of salt laterally ( m^2/s ) */
(PID.TID 0000.0001)                 0.000000000000000E+00
(PID.TID 0000.0001)     ;
(PID.TID 0000.0001) diffK4S =   /* Biharmonic diffusion of salt laterally ( m^4/s ) */
(PID.TID 0000.0001)                 0.000000000000000E+00
(PID.TID 0000.0001)     ;
(PID.TID 0000.0001) diffKrNrT = /* vertical profile of vertical diffusion of Temp ( m^2/s )*/
(PID.TID 0000.0001)    23 @  1.460000000000000E-05              /* K =  1: 23 */
(PID.TID 0000.0001)     ;
(PID.TID 0000.0001) diffKrNrS = /* vertical profile of vertical diffusion of Salt ( m^2/s )*/
(PID.TID 0000.0001)    23 @  1.460000000000000E-05              /* K =  1: 23 */
(PID.TID 0000.0001)     ;
(PID.TID 0000.0001) diffKrBL79surf = /* Surface diffusion for Bryan and Lewis 79 ( m^2/s ) */
(PID.TID 0000.0001)                 0.000000000000000E+00
(PID.TID 0000.0001)     ;
(PID.TID 0000.0001) diffKrBL79deep = /* Deep diffusion for Bryan and Lewis 1979 ( m^2/s ) */
(PID.TID 0000.0001)                 0.000000000000000E+00
(PID.TID 0000.0001)     ;
(PID.TID 0000.0001) diffKrBL79scl = /* Depth scale for Bryan and Lewis 1979 ( m ) */
(PID.TID 0000.0001)                 2.000000000000000E+02
(PID.TID 0000.0001)     ;
(PID.TID 0000.0001) diffKrBL79Ho = /* Turning depth for Bryan and Lewis 1979 ( m ) */
(PID.TID 0000.0001)                -2.000000000000000E+03
(PID.TID 0000.0001)     ;
(PID.TID 0000.0001) ivdc_kappa = /* Implicit Vertical Diffusivity for Convection ( m^2/s) */
(PID.TID 0000.0001)                 0.000000000000000E+00
(PID.TID 0000.0001)     ;
(PID.TID 0000.0001) hMixCriteria=  /* Criteria for mixed-layer diagnostic */
(PID.TID 0000.0001)                -8.000000000000000E-01
(PID.TID 0000.0001)     ;
(PID.TID 0000.0001) dRhoSmall =  /* Parameter for mixed-layer diagnostic */
(PID.TID 0000.0001)                 1.000000000000000E-06
(PID.TID 0000.0001)     ;
(PID.TID 0000.0001) hMixSmooth=  /* Smoothing parameter for mixed-layer diagnostic */
(PID.TID 0000.0001)                 0.000000000000000E+00
(PID.TID 0000.0001)     ;
(PID.TID 0000.0001) eosType =  /* Type of Equation of State */
(PID.TID 0000.0001)               'JMD95Z'
(PID.TID 0000.0001)     ;
(PID.TID 0000.0001) eosRefP0 = /* Reference atmospheric pressure for EOS ( Pa ) */
(PID.TID 0000.0001)                 1.013250000000000E+05
(PID.TID 0000.0001)     ;
(PID.TID 0000.0001) selectP_inEOS_Zc = /* select pressure to use in EOS (0,1,2,3) */
(PID.TID 0000.0001)                       0
(PID.TID 0000.0001)     0= -g*rhoConst*z ; 1= pRef (from tRef,sRef); 2= Hyd P ; 3= Hyd+NH P
(PID.TID 0000.0001)     ;
(PID.TID 0000.0001) surf_pRef = /* Surface reference pressure ( Pa ) */
(PID.TID 0000.0001)                 1.013250000000000E+05
(PID.TID 0000.0001)     ;
(PID.TID 0000.0001) HeatCapacity_Cp =  /* Specific heat capacity ( J/kg/K ) */
(PID.TID 0000.0001)                 3.986000000000000E+03
(PID.TID 0000.0001)     ;
(PID.TID 0000.0001) celsius2K = /* 0 degree Celsius converted to Kelvin ( K ) */
(PID.TID 0000.0001)                 2.731600000000000E+02
(PID.TID 0000.0001)     ;
(PID.TID 0000.0001) rhoConst  = /* Reference density (Boussinesq)  ( kg/m^3 ) */
(PID.TID 0000.0001)                 1.027000000000000E+03
(PID.TID 0000.0001)     ;
(PID.TID 0000.0001) rhoFacC = /* normalized Reference density @ cell-Center (-) */
(PID.TID 0000.0001)    23 @  1.000000000000000E+00              /* K =  1: 23 */
(PID.TID 0000.0001)     ;
(PID.TID 0000.0001) rhoFacF = /* normalized Reference density @ W-Interface (-) */
(PID.TID 0000.0001)    24 @  1.000000000000000E+00              /* K =  1: 24 */
(PID.TID 0000.0001)     ;
(PID.TID 0000.0001) rhoConstFresh = /* Fresh-water reference density ( kg/m^3 ) */
(PID.TID 0000.0001)                 9.998000000000000E+02
(PID.TID 0000.0001)     ;
(PID.TID 0000.0001) gravity =   /* Gravitational acceleration ( m/s^2 ) */
(PID.TID 0000.0001)                 9.815600000000000E+00
(PID.TID 0000.0001)     ;
(PID.TID 0000.0001) gBaro =   /* Barotropic gravity ( m/s^2 ) */
(PID.TID 0000.0001)                 9.815600000000000E+00
(PID.TID 0000.0001)     ;
(PID.TID 0000.0001) gravFacC = /* gravity factor (vs surf.) @ cell-Center (-) */
(PID.TID 0000.0001)    23 @  1.000000000000000E+00              /* K =  1: 23 */
(PID.TID 0000.0001)     ;
(PID.TID 0000.0001) gravFacF = /* gravity factor (vs surf.) @ W-Interface (-) */
(PID.TID 0000.0001)    24 @  1.000000000000000E+00              /* K =  1: 24 */
(PID.TID 0000.0001)     ;
(PID.TID 0000.0001) rotationPeriod =   /* Rotation Period ( s ) */
(PID.TID 0000.0001)                 8.616400000000000E+04
(PID.TID 0000.0001)     ;
(PID.TID 0000.0001) omega =   /* Angular velocity ( rad/s ) */
(PID.TID 0000.0001)                 7.292123516990375E-05
(PID.TID 0000.0001)     ;
(PID.TID 0000.0001) f0 =   /* Reference coriolis parameter ( 1/s ) */
(PID.TID 0000.0001)                 1.000000000000000E-04
(PID.TID 0000.0001)     ;
(PID.TID 0000.0001) beta =   /* Beta ( 1/(m.s) ) */
(PID.TID 0000.0001)                 9.999999999999999E-12
(PID.TID 0000.0001)     ;
(PID.TID 0000.0001) fPrime =   /* Second coriolis parameter ( 1/s ) */
(PID.TID 0000.0001)                 0.000000000000000E+00
(PID.TID 0000.0001)     ;
(PID.TID 0000.0001) rigidLid =   /* Rigid lid on/off flag */
(PID.TID 0000.0001)                   F
(PID.TID 0000.0001)     ;
(PID.TID 0000.0001) implicitFreeSurface =   /* Implicit free surface on/off flag */
(PID.TID 0000.0001)                   T
(PID.TID 0000.0001)     ;
(PID.TID 0000.0001) freeSurfFac =   /* Implicit free surface factor */
(PID.TID 0000.0001)                 1.000000000000000E+00
(PID.TID 0000.0001)     ;
(PID.TID 0000.0001) implicSurfPress =  /* Surface Pressure implicit factor (0-1) */
(PID.TID 0000.0001)                 1.000000000000000E+00
(PID.TID 0000.0001)     ;
(PID.TID 0000.0001) implicDiv2DFlow =  /* Barot. Flow Div. implicit factor (0-1) */
(PID.TID 0000.0001)                 1.000000000000000E+00
(PID.TID 0000.0001)     ;
(PID.TID 0000.0001) uniformLin_PhiSurf = /* use uniform Bo_surf on/off flag */
(PID.TID 0000.0001)                   T
(PID.TID 0000.0001)     ;
(PID.TID 0000.0001) uniformFreeSurfLev = /* free-surface level-index is uniform */
(PID.TID 0000.0001)                   T
(PID.TID 0000.0001)     ;
(PID.TID 0000.0001) sIceLoadFac =  /* scale factor for sIceLoad (0-1) */
(PID.TID 0000.0001)                 1.000000000000000E+00
(PID.TID 0000.0001)     ;
(PID.TID 0000.0001) hFacMin =   /* minimum partial cell factor (hFac) */
(PID.TID 0000.0001)                 1.000000000000000E+00
(PID.TID 0000.0001)     ;
(PID.TID 0000.0001) hFacMinDr = /* minimum partial cell thickness ( m) */
(PID.TID 0000.0001)                 0.000000000000000E+00
(PID.TID 0000.0001)     ;
(PID.TID 0000.0001) exactConserv =  /* Exact Volume Conservation on/off flag */
(PID.TID 0000.0001)                   F
(PID.TID 0000.0001)     ;
(PID.TID 0000.0001) linFSConserveTr = /* Tracer correction for Lin Free Surface on/off flag */
(PID.TID 0000.0001)                   F
(PID.TID 0000.0001)     ;
(PID.TID 0000.0001) nonlinFreeSurf = /* Non-linear Free Surf. options (-1,0,1,2,3)*/
(PID.TID 0000.0001)                       0
(PID.TID 0000.0001)      -1,0= Off ; 1,2,3= On, 2=+rescale gU,gV, 3=+update cg2d solv.
(PID.TID 0000.0001)     ;
(PID.TID 0000.0001) hFacInf =   /* lower threshold for hFac (nonlinFreeSurf only)*/
(PID.TID 0000.0001)                 2.000000000000000E-01
(PID.TID 0000.0001)     ;
(PID.TID 0000.0001) hFacSup =   /* upper threshold for hFac (nonlinFreeSurf only)*/
(PID.TID 0000.0001)                 2.000000000000000E+00
(PID.TID 0000.0001)     ;
(PID.TID 0000.0001) select_rStar = /* r* Vertical coord. options (=0 r coord.; >0 uses r*)*/
(PID.TID 0000.0001)                       0
(PID.TID 0000.0001)     ;
(PID.TID 0000.0001) useRealFreshWaterFlux = /* Real Fresh Water Flux on/off flag*/
(PID.TID 0000.0001)                   F
(PID.TID 0000.0001)     ;
(PID.TID 0000.0001) temp_EvPrRn = /* Temp. of Evap/Prec/R (UNSET=use local T)(oC)*/
(PID.TID 0000.0001)                 1.234567000000000E+05
(PID.TID 0000.0001)     ;
(PID.TID 0000.0001) salt_EvPrRn = /* Salin. of Evap/Prec/R (UNSET=use local S)(g/kg)*/
(PID.TID 0000.0001)                 0.000000000000000E+00
(PID.TID 0000.0001)     ;
(PID.TID 0000.0001) selectAddFluid = /* option for mass source/sink of fluid (=0: off) */
(PID.TID 0000.0001)                       0
(PID.TID 0000.0001)     ;
(PID.TID 0000.0001) temp_addMass = /* Temp. of addMass array (UNSET=use local T)(oC)*/
(PID.TID 0000.0001)                 1.234567000000000E+05
(PID.TID 0000.0001)     ;
(PID.TID 0000.0001) salt_addMass = /* Salin. of addMass array (UNSET=use local S)(g/kg)*/
(PID.TID 0000.0001)                 0.000000000000000E+00
(PID.TID 0000.0001)     ;
(PID.TID 0000.0001) convertFW2Salt = /* convert F.W. Flux to Salt Flux (-1=use local S)(g/kg)*/
(PID.TID 0000.0001)                 3.500000000000000E+01
(PID.TID 0000.0001)     ;
(PID.TID 0000.0001) use3Dsolver = /* use 3-D pressure solver on/off flag */
(PID.TID 0000.0001)                   F
(PID.TID 0000.0001)     ;
(PID.TID 0000.0001) nonHydrostatic =  /* Non-Hydrostatic on/off flag */
(PID.TID 0000.0001)                   F
(PID.TID 0000.0001)     ;
(PID.TID 0000.0001) nh_Am2 = /* Non-Hydrostatic terms scaling factor */
(PID.TID 0000.0001)                 1.000000000000000E+00
(PID.TID 0000.0001)     ;
(PID.TID 0000.0001) implicitNHPress = /* Non-Hyd Pressure implicit factor (0-1)*/
(PID.TID 0000.0001)                 1.000000000000000E+00
(PID.TID 0000.0001)     ;
(PID.TID 0000.0001) selectNHfreeSurf = /* Non-Hyd (free-)Surface option */
(PID.TID 0000.0001)                       0
(PID.TID 0000.0001)     ;
(PID.TID 0000.0001) quasiHydrostatic = /* Quasi-Hydrostatic on/off flag */
(PID.TID 0000.0001)                   F
(PID.TID 0000.0001)     ;
(PID.TID 0000.0001) calc_wVelocity = /* vertical velocity calculation on/off flag */
(PID.TID 0000.0001)                   T
(PID.TID 0000.0001)     ;
(PID.TID 0000.0001) momStepping =  /* Momentum equation on/off flag */
(PID.TID 0000.0001)                   T
(PID.TID 0000.0001)     ;
(PID.TID 0000.0001) vectorInvariantMomentum= /* Vector-Invariant Momentum on/off */
(PID.TID 0000.0001)                   F
(PID.TID 0000.0001)     ;
(PID.TID 0000.0001) momAdvection =  /* Momentum advection on/off flag */
(PID.TID 0000.0001)                   T
(PID.TID 0000.0001)     ;
(PID.TID 0000.0001) momViscosity =  /* Momentum viscosity on/off flag */
(PID.TID 0000.0001)                   T
(PID.TID 0000.0001)     ;
(PID.TID 0000.0001) momImplVertAdv= /* Momentum implicit vert. advection on/off*/
(PID.TID 0000.0001)                   F
(PID.TID 0000.0001)     ;
(PID.TID 0000.0001) implicitViscosity = /* Implicit viscosity on/off flag */
(PID.TID 0000.0001)                   T
(PID.TID 0000.0001)     ;
(PID.TID 0000.0001) selectImplicitDrag= /* Implicit bot Drag options (0,1,2)*/
(PID.TID 0000.0001)                       0
(PID.TID 0000.0001)     0= Expl. ; 1= Impl. on provis. Vel ; 2= Fully Impl (with surf.P)
(PID.TID 0000.0001)     ;
(PID.TID 0000.0001) metricTerms =  /* metric-Terms on/off flag */
(PID.TID 0000.0001)                   T
(PID.TID 0000.0001)     ;
(PID.TID 0000.0001) useNHMTerms = /* Non-Hydrostatic Metric-Terms on/off */
(PID.TID 0000.0001)                   F
(PID.TID 0000.0001)     ;
(PID.TID 0000.0001) selectCoriMap = /* Coriolis Map options (0,1,2,3)*/
(PID.TID 0000.0001)                       2
(PID.TID 0000.0001)     0= f-Plane ; 1= Beta-Plane ; 2= Spherical ; 3= read from file
(PID.TID 0000.0001)     ;
(PID.TID 0000.0001) use3dCoriolis = /* 3-D Coriolis on/off flag */
(PID.TID 0000.0001)                   F
(PID.TID 0000.0001)     ;
(PID.TID 0000.0001) useCoriolis =  /* Coriolis on/off flag */
(PID.TID 0000.0001)                   T
(PID.TID 0000.0001)     ;
(PID.TID 0000.0001) useCDscheme =  /* CD scheme on/off flag */
(PID.TID 0000.0001)                   T
(PID.TID 0000.0001)     ;
(PID.TID 0000.0001) selectCoriScheme= /* Scheme selector for Coriolis-Term */
(PID.TID 0000.0001)                       0
(PID.TID 0000.0001)    = 0 : original discretization (simple averaging, no hFac)
(PID.TID 0000.0001)    = 1 : Wet-point averaging (Jamar & Ozer 1986)
(PID.TID 0000.0001)    = 2 : energy conserving scheme (no hFac weight)
(PID.TID 0000.0001)    = 3 : energy conserving scheme using Wet-point averaging
(PID.TID 0000.0001)     ;
(PID.TID 0000.0001) momForcing =  /* Momentum forcing on/off flag */
(PID.TID 0000.0001)                   T
(PID.TID 0000.0001)     ;
(PID.TID 0000.0001) momTidalForcing = /* Momentum Tidal forcing on/off flag */
(PID.TID 0000.0001)                   T
(PID.TID 0000.0001)     ;
(PID.TID 0000.0001) momPressureForcing =  /* Momentum pressure term on/off flag */
(PID.TID 0000.0001)                   T
(PID.TID 0000.0001)     ;
(PID.TID 0000.0001) implicitIntGravWave= /* Implicit Internal Gravity Wave flag */
(PID.TID 0000.0001)                   F
(PID.TID 0000.0001)     ;
(PID.TID 0000.0001) staggerTimeStep =    /* Stagger time stepping on/off flag */
(PID.TID 0000.0001)                   T
(PID.TID 0000.0001)     ;
(PID.TID 0000.0001) doResetHFactors = /* reset thickness factors @ each time-step */
(PID.TID 0000.0001)                   F
(PID.TID 0000.0001)     ;
(PID.TID 0000.0001) multiDimAdvection =  /* enable/disable Multi-Dim Advection */
(PID.TID 0000.0001)                   T
(PID.TID 0000.0001)     ;
(PID.TID 0000.0001) useMultiDimAdvec =   /* Multi-Dim Advection is/is-not used */
(PID.TID 0000.0001)                   T
(PID.TID 0000.0001)     ;
(PID.TID 0000.0001) implicitDiffusion = /* Implicit Diffusion on/off flag */
(PID.TID 0000.0001)                   T
(PID.TID 0000.0001)     ;
(PID.TID 0000.0001) tempStepping =  /* Temperature equation on/off flag */
(PID.TID 0000.0001)                   T
(PID.TID 0000.0001)     ;
(PID.TID 0000.0001) tempAdvection = /* Temperature advection on/off flag */
(PID.TID 0000.0001)                   T
(PID.TID 0000.0001)     ;
(PID.TID 0000.0001) tempImplVertAdv = /* Temp. implicit vert. advection on/off */
(PID.TID 0000.0001)                   F
(PID.TID 0000.0001)     ;
(PID.TID 0000.0001) tempForcing  =  /* Temperature forcing on/off flag */
(PID.TID 0000.0001)                   T
(PID.TID 0000.0001)     ;
(PID.TID 0000.0001) doThetaClimRelax = /* apply SST relaxation on/off flag */
(PID.TID 0000.0001)                   F
(PID.TID 0000.0001)     ;
(PID.TID 0000.0001) tempIsActiveTr = /* Temp. is a dynamically Active Tracer */
(PID.TID 0000.0001)                   T
(PID.TID 0000.0001)     ;
(PID.TID 0000.0001) saltStepping =  /* Salinity equation on/off flag */
(PID.TID 0000.0001)                   T
(PID.TID 0000.0001)     ;
(PID.TID 0000.0001) saltAdvection = /* Salinity advection on/off flag */
(PID.TID 0000.0001)                   T
(PID.TID 0000.0001)     ;
(PID.TID 0000.0001) saltImplVertAdv = /* Sali. implicit vert. advection on/off */
(PID.TID 0000.0001)                   F
(PID.TID 0000.0001)     ;
(PID.TID 0000.0001) saltForcing  =  /* Salinity forcing on/off flag */
(PID.TID 0000.0001)                   T
(PID.TID 0000.0001)     ;
(PID.TID 0000.0001) doSaltClimRelax = /* apply SSS relaxation on/off flag */
(PID.TID 0000.0001)                   T
(PID.TID 0000.0001)     ;
(PID.TID 0000.0001) saltIsActiveTr = /* Salt  is a dynamically Active Tracer */
(PID.TID 0000.0001)                   T
(PID.TID 0000.0001)     ;
(PID.TID 0000.0001)  readBinaryPrec = /* Precision used for reading binary files */
(PID.TID 0000.0001)                      32
(PID.TID 0000.0001)     ;
(PID.TID 0000.0001) writeBinaryPrec = /* Precision used for writing binary files */
(PID.TID 0000.0001)                      32
(PID.TID 0000.0001)     ;
(PID.TID 0000.0001)  rwSuffixType =   /* select format of mds file suffix */
(PID.TID 0000.0001)                       0
(PID.TID 0000.0001)    = 0 : myIter (I10.10) ;   = 1 : 100*myTime (100th sec) ;
(PID.TID 0000.0001)    = 2 : myTime (seconds);   = 3 : myTime/360 (10th of hr);
(PID.TID 0000.0001)    = 4 : myTime/3600 (hours)
(PID.TID 0000.0001)     ;
(PID.TID 0000.0001)  globalFiles = /* write "global" (=not per tile) files */
(PID.TID 0000.0001)                   F
(PID.TID 0000.0001)     ;
(PID.TID 0000.0001)  useSingleCpuIO = /* only master MPI process does I/O */
(PID.TID 0000.0001)                   T
(PID.TID 0000.0001)     ;
(PID.TID 0000.0001)  useSingleCpuInput = /* only master process reads input */
(PID.TID 0000.0001)                   T
(PID.TID 0000.0001)     ;
(PID.TID 0000.0001) /* debLev[*]  : level of debug & auxiliary message printing */
(PID.TID 0000.0001) debLevZero =  0 ; /* level of disabled aux. msg printing */
(PID.TID 0000.0001)    debLevA =  1 ; /* level of minimum  aux. msg printing */
(PID.TID 0000.0001)    debLevB =  2 ; /* level of low aux. print (report read-file opening)*/
(PID.TID 0000.0001)    debLevC =  3 ; /* level of moderate debug prt (most pkgs debug msg) */
(PID.TID 0000.0001)    debLevD =  4 ; /* level of enhanced debug prt (add DEBUG_STATS prt) */
(PID.TID 0000.0001)    debLevE =  5 ; /* level of extensive debug printing */
(PID.TID 0000.0001) debugLevel =  /* select debug printing level */
(PID.TID 0000.0001)                       4
(PID.TID 0000.0001)     ;
(PID.TID 0000.0001)  plotLevel =  /* select PLOT_FIELD printing level */
(PID.TID 0000.0001)                       4
(PID.TID 0000.0001)     ;
(PID.TID 0000.0001) //
(PID.TID 0000.0001) // Elliptic solver(s) paramters ( PARM02 in namelist )
(PID.TID 0000.0001) //
(PID.TID 0000.0001) cg2dMaxIters =   /* Upper limit on 2d con. grad iterations  */
(PID.TID 0000.0001)                    1000
(PID.TID 0000.0001)     ;
(PID.TID 0000.0001) cg2dMinItersNSA =   /* Minimum number of iterations of 2d con. grad solver  */
(PID.TID 0000.0001)                       0
(PID.TID 0000.0001)     ;
(PID.TID 0000.0001) cg2dUseMinResSol= /* use cg2d last-iter(=0) / min-resid.(=1) solution */
(PID.TID 0000.0001)                       0
(PID.TID 0000.0001)     ;
(PID.TID 0000.0001) cg2dTargetResidual =   /* 2d con. grad target residual  */
(PID.TID 0000.0001)                 1.000000000000000E-13
(PID.TID 0000.0001)     ;
(PID.TID 0000.0001) cg2dTargetResWunit =   /* CG2d target residual [W units] */
(PID.TID 0000.0001)                -1.000000000000000E+00
(PID.TID 0000.0001)     ;
(PID.TID 0000.0001) cg2dPreCondFreq =   /* Freq. for updating cg2d preconditioner */
(PID.TID 0000.0001)                       1
(PID.TID 0000.0001)     ;
(PID.TID 0000.0001) useSRCGSolver =  /* use single reduction CG solver(s) */
(PID.TID 0000.0001)                   F
(PID.TID 0000.0001)     ;
(PID.TID 0000.0001) useNSACGSolver =  /* use not-self-adjoint CG solver */
(PID.TID 0000.0001)                   F
(PID.TID 0000.0001)     ;
(PID.TID 0000.0001) printResidualFreq = /* Freq. for printing CG residual */
(PID.TID 0000.0001)                       0
(PID.TID 0000.0001)     ;
(PID.TID 0000.0001) //
(PID.TID 0000.0001) // Time stepping paramters ( PARM03 in namelist )
(PID.TID 0000.0001) //
(PID.TID 0000.0001) deltaTMom =   /* Momentum equation timestep ( s ) */
(PID.TID 0000.0001)                 3.600000000000000E+03
(PID.TID 0000.0001)     ;
(PID.TID 0000.0001) deltaTFreeSurf = /* FreeSurface equation timestep ( s ) */
(PID.TID 0000.0001)                 3.600000000000000E+03
(PID.TID 0000.0001)     ;
(PID.TID 0000.0001) dTtracerLev =  /* Tracer equation timestep ( s ) */
(PID.TID 0000.0001)    23 @  3.600000000000000E+03              /* K =  1: 23 */
(PID.TID 0000.0001)     ;
(PID.TID 0000.0001) deltaTClock  =   /* Model clock timestep ( s ) */
(PID.TID 0000.0001)                 3.600000000000000E+03
(PID.TID 0000.0001)     ;
(PID.TID 0000.0001) cAdjFreq =   /* Convective adjustment interval ( s ) */
(PID.TID 0000.0001)                 0.000000000000000E+00
(PID.TID 0000.0001)     ;
(PID.TID 0000.0001) momForcingOutAB = /* =1: take Momentum Forcing out of Adams-Bash. stepping */
(PID.TID 0000.0001)                       1
(PID.TID 0000.0001)     ;
(PID.TID 0000.0001) tracForcingOutAB = /* =1: take T,S,pTr Forcing out of Adams-Bash. stepping */
(PID.TID 0000.0001)                       1
(PID.TID 0000.0001)     ;
(PID.TID 0000.0001) momDissip_In_AB = /* put Dissipation Tendency in Adams-Bash. stepping */
(PID.TID 0000.0001)                   T
(PID.TID 0000.0001)     ;
(PID.TID 0000.0001) doAB_onGtGs = /* apply AB on Tendencies (rather than on T,S)*/
(PID.TID 0000.0001)                   T
(PID.TID 0000.0001)     ;
(PID.TID 0000.0001) abEps =   /* Adams-Bashforth-2 stabilizing weight */
(PID.TID 0000.0001)                 1.000000000000000E-01
(PID.TID 0000.0001)     ;
(PID.TID 0000.0001) applyExchUV_early = /* Apply EXCH to U,V earlier in time-step */
(PID.TID 0000.0001)                   F
(PID.TID 0000.0001)     ;
(PID.TID 0000.0001) tauCD =   /* CD coupling time-scale ( s ) */
(PID.TID 0000.0001)                 1.728000000000000E+05
(PID.TID 0000.0001)     ;
(PID.TID 0000.0001) rCD =   /* Normalised CD coupling parameter */
(PID.TID 0000.0001)                 9.791666666666666E-01
(PID.TID 0000.0001)     ;
(PID.TID 0000.0001) epsAB_CD = /* AB-2 stabilizing weight for CD-scheme*/
(PID.TID 0000.0001)                 1.000000000000000E-01
(PID.TID 0000.0001)     ;
(PID.TID 0000.0001) pickupStrictlyMatch= /* stop if pickup do not strictly match */
(PID.TID 0000.0001)                   T
(PID.TID 0000.0001)     ;
(PID.TID 0000.0001) nIter0   =   /* Run starting timestep number */
(PID.TID 0000.0001)                       0
(PID.TID 0000.0001)     ;
(PID.TID 0000.0001) nTimeSteps = /* Number of timesteps */
(PID.TID 0000.0001)                       9
(PID.TID 0000.0001)     ;
(PID.TID 0000.0001) nEndIter =   /* Run ending timestep number */
(PID.TID 0000.0001)                       9
(PID.TID 0000.0001)     ;
(PID.TID 0000.0001) baseTime =   /* Model base time ( s ) */
(PID.TID 0000.0001)                 0.000000000000000E+00
(PID.TID 0000.0001)     ;
(PID.TID 0000.0001) startTime =  /* Run start time ( s ) */
(PID.TID 0000.0001)                 0.000000000000000E+00
(PID.TID 0000.0001)     ;
(PID.TID 0000.0001) endTime  =   /* Integration ending time ( s ) */
(PID.TID 0000.0001)                 3.240000000000000E+04
(PID.TID 0000.0001)     ;
(PID.TID 0000.0001) pChkPtFreq = /* Permanent restart/pickup file interval ( s ) */
(PID.TID 0000.0001)                 3.600000000000000E+03
(PID.TID 0000.0001)     ;
(PID.TID 0000.0001) chkPtFreq  = /* Rolling restart/pickup file interval ( s ) */
(PID.TID 0000.0001)                 0.000000000000000E+00
(PID.TID 0000.0001)     ;
(PID.TID 0000.0001) pickup_write_mdsio =   /* Model IO flag. */
(PID.TID 0000.0001)                   T
(PID.TID 0000.0001)     ;
(PID.TID 0000.0001) pickup_read_mdsio =   /* Model IO flag. */
(PID.TID 0000.0001)                   T
(PID.TID 0000.0001)     ;
(PID.TID 0000.0001) pickup_write_mnc =   /* Model IO flag. */
(PID.TID 0000.0001)                   F
(PID.TID 0000.0001)     ;
(PID.TID 0000.0001) pickup_read_mnc =   /* Model IO flag. */
(PID.TID 0000.0001)                   F
(PID.TID 0000.0001)     ;
(PID.TID 0000.0001) writePickupAtEnd =   /* Model IO flag. */
(PID.TID 0000.0001)                   T
(PID.TID 0000.0001)     ;
(PID.TID 0000.0001) dumpFreq =   /* Model state write out interval ( s ). */
(PID.TID 0000.0001)                 0.000000000000000E+00
(PID.TID 0000.0001)     ;
(PID.TID 0000.0001) dumpInitAndLast= /* write out Initial & Last iter. model state */
(PID.TID 0000.0001)                   T
(PID.TID 0000.0001)     ;
(PID.TID 0000.0001) snapshot_mdsio =   /* Model IO flag. */
(PID.TID 0000.0001)                   T
(PID.TID 0000.0001)     ;
(PID.TID 0000.0001) snapshot_mnc =   /* Model IO flag. */
(PID.TID 0000.0001)                   F
(PID.TID 0000.0001)     ;
(PID.TID 0000.0001) monitorFreq =   /* Monitor output interval ( s ). */
(PID.TID 0000.0001)                 1.000000000000000E+00
(PID.TID 0000.0001)     ;
(PID.TID 0000.0001) monitorSelect = /* select group of variables to monitor */
(PID.TID 0000.0001)                       3
(PID.TID 0000.0001)     ;
(PID.TID 0000.0001) monitor_stdio =   /* Model IO flag. */
(PID.TID 0000.0001)                   T
(PID.TID 0000.0001)     ;
(PID.TID 0000.0001) monitor_mnc =   /* Model IO flag. */
(PID.TID 0000.0001)                   F
(PID.TID 0000.0001)     ;
(PID.TID 0000.0001) externForcingPeriod =   /* forcing period (s) */
(PID.TID 0000.0001)                 0.000000000000000E+00
(PID.TID 0000.0001)     ;
(PID.TID 0000.0001) externForcingCycle =   /* period of the cyle (s). */
(PID.TID 0000.0001)                 0.000000000000000E+00
(PID.TID 0000.0001)     ;
(PID.TID 0000.0001) tauThetaClimRelax =   /* relaxation time scale (s) */
(PID.TID 0000.0001)                 0.000000000000000E+00
(PID.TID 0000.0001)     ;
(PID.TID 0000.0001) tauSaltClimRelax =   /* relaxation time scale (s) */
(PID.TID 0000.0001)                 4.142330000000000E+06
(PID.TID 0000.0001)     ;
(PID.TID 0000.0001) latBandClimRelax =   /* max. Lat. where relaxation */
(PID.TID 0000.0001)                 1.800000000000000E+02
(PID.TID 0000.0001)     ;
(PID.TID 0000.0001) //
(PID.TID 0000.0001) // Gridding paramters ( PARM04 in namelist )
(PID.TID 0000.0001) //
(PID.TID 0000.0001) usingCartesianGrid = /* Cartesian coordinates flag ( True/False ) */
(PID.TID 0000.0001)                   F
(PID.TID 0000.0001)     ;
(PID.TID 0000.0001) usingCylindricalGrid = /* Cylindrical coordinates flag ( True/False ) */
(PID.TID 0000.0001)                   F
(PID.TID 0000.0001)     ;
(PID.TID 0000.0001) usingSphericalPolarGrid = /* Spherical coordinates flag ( True/False ) */
(PID.TID 0000.0001)                   T
(PID.TID 0000.0001)     ;
(PID.TID 0000.0001) usingCurvilinearGrid = /* Curvilinear coordinates flag ( True/False ) */
(PID.TID 0000.0001)                   F
(PID.TID 0000.0001)     ;
(PID.TID 0000.0001) useMin4hFacEdges = /* set hFacW,S as minimum of adjacent hFacC factor */
(PID.TID 0000.0001)                   F
(PID.TID 0000.0001)     ;
(PID.TID 0000.0001) interViscAr_pCell = /* account for partial-cell in interior vert. viscosity */
(PID.TID 0000.0001)                   F
(PID.TID 0000.0001)     ;
(PID.TID 0000.0001) interDiffKr_pCell = /* account for partial-cell in interior vert. diffusion */
(PID.TID 0000.0001)                   F
(PID.TID 0000.0001)     ;
(PID.TID 0000.0001) pCellMix_select = /* option to enhance mixing near surface & bottom */
(PID.TID 0000.0001)                       0
(PID.TID 0000.0001)     ;
(PID.TID 0000.0001) selectSigmaCoord = /* Hybrid-Sigma Vert. Coordinate option */
(PID.TID 0000.0001)                       0
(PID.TID 0000.0001)     ;
(PID.TID 0000.0001) rSigmaBnd = /* r/sigma transition ( units of r ==  m ) */
(PID.TID 0000.0001)                 1.234567000000000E+05
(PID.TID 0000.0001)     ;
(PID.TID 0000.0001) rkSign =   /* index orientation relative to vertical coordinate */
(PID.TID 0000.0001)                -1.000000000000000E+00
(PID.TID 0000.0001)     ;
(PID.TID 0000.0001) gravitySign = /* gravity orientation relative to vertical coordinate */
(PID.TID 0000.0001)                -1.000000000000000E+00
(PID.TID 0000.0001)     ;
(PID.TID 0000.0001) seaLev_Z =  /* reference height of sea-level [m] */
(PID.TID 0000.0001)                 0.000000000000000E+00
(PID.TID 0000.0001)     ;
(PID.TID 0000.0001) top_Pres =  /* reference pressure at the top [Pa] */
(PID.TID 0000.0001)                 0.000000000000000E+00
(PID.TID 0000.0001)     ;
(PID.TID 0000.0001) mass2rUnit = /* convert mass per unit area [kg/m2] to r-units [m] */
(PID.TID 0000.0001)                 9.737098344693282E-04
(PID.TID 0000.0001)     ;
(PID.TID 0000.0001) rUnit2mass = /* convert r-units [m] to mass per unit area [kg/m2] */
(PID.TID 0000.0001)                 1.027000000000000E+03
(PID.TID 0000.0001)     ;
(PID.TID 0000.0001) drC =   /* C spacing ( units of r ) */
(PID.TID 0000.0001)                 5.000000000000000E+00,      /* K =  1 */
(PID.TID 0000.0001)                 1.000000000000000E+01,      /* K =  2 */
(PID.TID 0000.0001)                 1.250000000000000E+01,      /* K =  3 */
(PID.TID 0000.0001)                 1.750000000000000E+01,      /* K =  4 */
(PID.TID 0000.0001)                 2.000000000000000E+01,      /* K =  5 */
(PID.TID 0000.0001)                 2.250000000000000E+01,      /* K =  6 */
(PID.TID 0000.0001)                 3.000000000000000E+01,      /* K =  7 */
(PID.TID 0000.0001)                 4.250000000000000E+01,      /* K =  8 */
(PID.TID 0000.0001)                 6.250000000000000E+01,      /* K =  9 */
(PID.TID 0000.0001)                 8.750000000000000E+01,      /* K = 10 */
(PID.TID 0000.0001)                 1.250000000000000E+02,      /* K = 11 */
(PID.TID 0000.0001)                 1.750000000000000E+02,      /* K = 12 */
(PID.TID 0000.0001)                 2.375000000000000E+02,      /* K = 13 */
(PID.TID 0000.0001)                 3.125000000000000E+02,      /* K = 14 */
(PID.TID 0000.0001)                 3.825000000000000E+02,      /* K = 15 */
(PID.TID 0000.0001)                 4.325000000000000E+02,      /* K = 16 */
(PID.TID 0000.0001)                 4.750000000000000E+02,      /* K = 17 */
(PID.TID 0000.0001)     6 @  5.000000000000000E+02,             /* K = 18: 23 */
(PID.TID 0000.0001)                 2.500000000000000E+02       /* K = 24 */
(PID.TID 0000.0001)     ;
(PID.TID 0000.0001) drF =   /* W spacing ( units of r ) */
(PID.TID 0000.0001)     2 @  1.000000000000000E+01,             /* K =  1:  2 */
(PID.TID 0000.0001)                 1.500000000000000E+01,      /* K =  3 */
(PID.TID 0000.0001)     2 @  2.000000000000000E+01,             /* K =  4:  5 */
(PID.TID 0000.0001)                 2.500000000000000E+01,      /* K =  6 */
(PID.TID 0000.0001)                 3.500000000000000E+01,      /* K =  7 */
(PID.TID 0000.0001)                 5.000000000000000E+01,      /* K =  8 */
(PID.TID 0000.0001)                 7.500000000000000E+01,      /* K =  9 */
(PID.TID 0000.0001)                 1.000000000000000E+02,      /* K = 10 */
(PID.TID 0000.0001)                 1.500000000000000E+02,      /* K = 11 */
(PID.TID 0000.0001)                 2.000000000000000E+02,      /* K = 12 */
(PID.TID 0000.0001)                 2.750000000000000E+02,      /* K = 13 */
(PID.TID 0000.0001)                 3.500000000000000E+02,      /* K = 14 */
(PID.TID 0000.0001)                 4.150000000000000E+02,      /* K = 15 */
(PID.TID 0000.0001)                 4.500000000000000E+02,      /* K = 16 */
(PID.TID 0000.0001)     7 @  5.000000000000000E+02              /* K = 17: 23 */
(PID.TID 0000.0001)     ;
(PID.TID 0000.0001) delX = /* U spacing ( m - cartesian, degrees - spherical ) */
(PID.TID 0000.0001)    20 @  2.000000000000000E+00              /* I =  1: 20 */
(PID.TID 0000.0001)     ;
(PID.TID 0000.0001) delY = /* V spacing ( m - cartesian, degrees - spherical ) */
(PID.TID 0000.0001)    16 @  2.000000000000000E+00              /* J =  1: 16 */
(PID.TID 0000.0001)     ;
(PID.TID 0000.0001) xgOrigin = /* X-axis origin of West  edge (cartesian: m, lat-lon: deg) */
(PID.TID 0000.0001)                 2.800000000000000E+02
(PID.TID 0000.0001)     ;
(PID.TID 0000.0001) ygOrigin = /* Y-axis origin of South edge (cartesian: m, lat-lon: deg) */
(PID.TID 0000.0001)                 4.600000000000000E+01
(PID.TID 0000.0001)     ;
(PID.TID 0000.0001) rSphere =  /* Radius ( ignored - cartesian, m - spherical ) */
(PID.TID 0000.0001)                 6.371000000000000E+06
(PID.TID 0000.0001)     ;
(PID.TID 0000.0001) deepAtmosphere = /* Deep/Shallow Atmosphere flag (True/False) */
(PID.TID 0000.0001)                   F
(PID.TID 0000.0001)     ;
(PID.TID 0000.0001) xC =  /* xC(:,1,:,1) : P-point X coord ( deg. or m if cartesian) */
(PID.TID 0000.0001)                 2.810000000000000E+02,      /* I =  1 */
(PID.TID 0000.0001)                 2.830000000000000E+02,      /* I =  2 */
(PID.TID 0000.0001)                 2.850000000000000E+02,      /* I =  3 */
(PID.TID 0000.0001)                 2.870000000000000E+02,      /* I =  4 */
(PID.TID 0000.0001)                 2.890000000000000E+02,      /* I =  5 */
(PID.TID 0000.0001)                 2.910000000000000E+02,      /* I =  6 */
(PID.TID 0000.0001)                 2.930000000000000E+02,      /* I =  7 */
(PID.TID 0000.0001)                 2.950000000000000E+02,      /* I =  8 */
(PID.TID 0000.0001)                 2.970000000000000E+02,      /* I =  9 */
(PID.TID 0000.0001)                 2.990000000000000E+02,      /* I = 10 */
(PID.TID 0000.0001)                 3.010000000000000E+02,      /* I = 11 */
(PID.TID 0000.0001)                 3.030000000000000E+02,      /* I = 12 */
(PID.TID 0000.0001)                 3.050000000000000E+02,      /* I = 13 */
(PID.TID 0000.0001)                 3.070000000000000E+02,      /* I = 14 */
(PID.TID 0000.0001)                 3.090000000000000E+02,      /* I = 15 */
(PID.TID 0000.0001)                 3.110000000000000E+02,      /* I = 16 */
(PID.TID 0000.0001)                 3.130000000000000E+02,      /* I = 17 */
(PID.TID 0000.0001)                 3.150000000000000E+02,      /* I = 18 */
(PID.TID 0000.0001)                 3.170000000000000E+02,      /* I = 19 */
(PID.TID 0000.0001)                 3.190000000000000E+02       /* I = 20 */
(PID.TID 0000.0001)     ;
(PID.TID 0000.0001) yC =  /* yC(1,:,1,:) : P-point Y coord ( deg. or m if cartesian) */
(PID.TID 0000.0001)                 4.700000000000000E+01,      /* J =  1 */
(PID.TID 0000.0001)                 4.900000000000000E+01,      /* J =  2 */
(PID.TID 0000.0001)                 5.100000000000000E+01,      /* J =  3 */
(PID.TID 0000.0001)                 5.300000000000000E+01,      /* J =  4 */
(PID.TID 0000.0001)                 5.500000000000000E+01,      /* J =  5 */
(PID.TID 0000.0001)                 5.700000000000000E+01,      /* J =  6 */
(PID.TID 0000.0001)                 5.900000000000000E+01,      /* J =  7 */
(PID.TID 0000.0001)                 6.100000000000000E+01,      /* J =  8 */
(PID.TID 0000.0001)                 6.300000000000000E+01,      /* J =  9 */
(PID.TID 0000.0001)                 6.500000000000000E+01,      /* J = 10 */
(PID.TID 0000.0001)                 6.700000000000000E+01,      /* J = 11 */
(PID.TID 0000.0001)                 6.900000000000000E+01,      /* J = 12 */
(PID.TID 0000.0001)                 7.100000000000000E+01,      /* J = 13 */
(PID.TID 0000.0001)                 7.300000000000000E+01,      /* J = 14 */
(PID.TID 0000.0001)                 7.500000000000000E+01,      /* J = 15 */
(PID.TID 0000.0001)                 7.700000000000000E+01       /* J = 16 */
(PID.TID 0000.0001)     ;
(PID.TID 0000.0001) rcoord = /* P-point R coordinate (  units of r ) */
(PID.TID 0000.0001)                -5.000000000000000E+00,      /* K =  1 */
(PID.TID 0000.0001)                -1.500000000000000E+01,      /* K =  2 */
(PID.TID 0000.0001)                -2.750000000000000E+01,      /* K =  3 */
(PID.TID 0000.0001)                -4.500000000000000E+01,      /* K =  4 */
(PID.TID 0000.0001)                -6.500000000000000E+01,      /* K =  5 */
(PID.TID 0000.0001)                -8.750000000000000E+01,      /* K =  6 */
(PID.TID 0000.0001)                -1.175000000000000E+02,      /* K =  7 */
(PID.TID 0000.0001)                -1.600000000000000E+02,      /* K =  8 */
(PID.TID 0000.0001)                -2.225000000000000E+02,      /* K =  9 */
(PID.TID 0000.0001)                -3.100000000000000E+02,      /* K = 10 */
(PID.TID 0000.0001)                -4.350000000000000E+02,      /* K = 11 */
(PID.TID 0000.0001)                -6.100000000000000E+02,      /* K = 12 */
(PID.TID 0000.0001)                -8.475000000000000E+02,      /* K = 13 */
(PID.TID 0000.0001)                -1.160000000000000E+03,      /* K = 14 */
(PID.TID 0000.0001)                -1.542500000000000E+03,      /* K = 15 */
(PID.TID 0000.0001)                -1.975000000000000E+03,      /* K = 16 */
(PID.TID 0000.0001)                -2.450000000000000E+03,      /* K = 17 */
(PID.TID 0000.0001)                -2.950000000000000E+03,      /* K = 18 */
(PID.TID 0000.0001)                -3.450000000000000E+03,      /* K = 19 */
(PID.TID 0000.0001)                -3.950000000000000E+03,      /* K = 20 */
(PID.TID 0000.0001)                -4.450000000000000E+03,      /* K = 21 */
(PID.TID 0000.0001)                -4.950000000000000E+03,      /* K = 22 */
(PID.TID 0000.0001)                -5.450000000000000E+03       /* K = 23 */
(PID.TID 0000.0001)     ;
(PID.TID 0000.0001) rF =   /* W-Interf. R coordinate (  units of r ) */
(PID.TID 0000.0001)                 0.000000000000000E+00,      /* K =  1 */
(PID.TID 0000.0001)                -1.000000000000000E+01,      /* K =  2 */
(PID.TID 0000.0001)                -2.000000000000000E+01,      /* K =  3 */
(PID.TID 0000.0001)                -3.500000000000000E+01,      /* K =  4 */
(PID.TID 0000.0001)                -5.500000000000000E+01,      /* K =  5 */
(PID.TID 0000.0001)                -7.500000000000000E+01,      /* K =  6 */
(PID.TID 0000.0001)                -1.000000000000000E+02,      /* K =  7 */
(PID.TID 0000.0001)                -1.350000000000000E+02,      /* K =  8 */
(PID.TID 0000.0001)                -1.850000000000000E+02,      /* K =  9 */
(PID.TID 0000.0001)                -2.600000000000000E+02,      /* K = 10 */
(PID.TID 0000.0001)                -3.600000000000000E+02,      /* K = 11 */
(PID.TID 0000.0001)                -5.100000000000000E+02,      /* K = 12 */
(PID.TID 0000.0001)                -7.100000000000000E+02,      /* K = 13 */
(PID.TID 0000.0001)                -9.850000000000000E+02,      /* K = 14 */
(PID.TID 0000.0001)                -1.335000000000000E+03,      /* K = 15 */
(PID.TID 0000.0001)                -1.750000000000000E+03,      /* K = 16 */
(PID.TID 0000.0001)                -2.200000000000000E+03,      /* K = 17 */
(PID.TID 0000.0001)                -2.700000000000000E+03,      /* K = 18 */
(PID.TID 0000.0001)                -3.200000000000000E+03,      /* K = 19 */
(PID.TID 0000.0001)                -3.700000000000000E+03,      /* K = 20 */
(PID.TID 0000.0001)                -4.200000000000000E+03,      /* K = 21 */
(PID.TID 0000.0001)                -4.700000000000000E+03,      /* K = 22 */
(PID.TID 0000.0001)                -5.200000000000000E+03,      /* K = 23 */
(PID.TID 0000.0001)                -5.700000000000000E+03       /* K = 24 */
(PID.TID 0000.0001)     ;
(PID.TID 0000.0001) deepFacC = /* deep-model grid factor @ cell-Center (-) */
(PID.TID 0000.0001)    23 @  1.000000000000000E+00              /* K =  1: 23 */
(PID.TID 0000.0001)     ;
(PID.TID 0000.0001) deepFacF = /* deep-model grid factor @ W-Interface (-) */
(PID.TID 0000.0001)    24 @  1.000000000000000E+00              /* K =  1: 24 */
(PID.TID 0000.0001)     ;
(PID.TID 0000.0001) rotateGrid = /* use rotated grid ( True/False ) */
(PID.TID 0000.0001)                   F
(PID.TID 0000.0001)     ;
(PID.TID 0000.0001) phiEuler = /* Euler angle, rotation about original z-coordinate [rad] */
(PID.TID 0000.0001)                 0.000000000000000E+00
(PID.TID 0000.0001)     ;
(PID.TID 0000.0001) thetaEuler = /* Euler angle, rotation about new x-coordinate [rad] */
(PID.TID 0000.0001)                 0.000000000000000E+00
(PID.TID 0000.0001)     ;
(PID.TID 0000.0001) psiEuler = /* Euler angle, rotation about new z-coordinate [rad] */
(PID.TID 0000.0001)                 0.000000000000000E+00
(PID.TID 0000.0001)     ;
(PID.TID 0000.0001) dxF =  /* dxF(:,1,:,1) ( units: m ) */
(PID.TID 0000.0001)    20 @  1.516695152377178E+05              /* I =  1: 20 */
(PID.TID 0000.0001)     ;
(PID.TID 0000.0001) dxF =  /* dxF(1,:,1,:) ( units: m ) */
(PID.TID 0000.0001)                 1.516695152377178E+05,      /* J =  1 */
(PID.TID 0000.0001)                 1.459008712061998E+05,      /* J =  2 */
(PID.TID 0000.0001)                 1.399544694374234E+05,      /* J =  3 */
(PID.TID 0000.0001)                 1.338375547059708E+05,      /* J =  4 */
(PID.TID 0000.0001)                 1.275575795302039E+05,      /* J =  5 */
(PID.TID 0000.0001)                 1.211221950925184E+05,      /* J =  6 */
(PID.TID 0000.0001)                 1.145392419175564E+05,      /* J =  7 */
(PID.TID 0000.0001)                 1.078167403197357E+05,      /* J =  8 */
(PID.TID 0000.0001)                 1.009628806317309E+05,      /* J =  9 */
(PID.TID 0000.0001)                 9.398601322581600E+04,      /* J = 10 */
(PID.TID 0000.0001)                 8.689463834022089E+04,      /* J = 11 */
(PID.TID 0000.0001)                 7.969739572290122E+04,      /* J = 12 */
(PID.TID 0000.0001)                 7.240305410533583E+04,      /* J = 13 */
(PID.TID 0000.0001)                 6.502050051917860E+04,      /* J = 14 */
(PID.TID 0000.0001)                 5.755872946877908E+04,      /* J = 15 */
(PID.TID 0000.0001)                 5.002683197276442E+04       /* J = 16 */
(PID.TID 0000.0001)     ;
(PID.TID 0000.0001) dyF =  /* dyF(:,1,:,1) ( units: m ) */
(PID.TID 0000.0001)    20 @  2.223898532891175E+05              /* I =  1: 20 */
(PID.TID 0000.0001)     ;
(PID.TID 0000.0001) dyF =  /* dyF(1,:,1,:) ( units: m ) */
(PID.TID 0000.0001)    16 @  2.223898532891175E+05              /* J =  1: 16 */
(PID.TID 0000.0001)     ;
(PID.TID 0000.0001) dxG =  /* dxG(:,1,:,1) ( units: m ) */
(PID.TID 0000.0001)    20 @  1.544849730924338E+05              /* I =  1: 20 */
(PID.TID 0000.0001)     ;
(PID.TID 0000.0001) dxG =  /* dxG(1,:,1,:) ( units: m ) */
(PID.TID 0000.0001)                 1.544849730924338E+05,      /* J =  1 */
(PID.TID 0000.0001)                 1.488078573794047E+05,      /* J =  2 */
(PID.TID 0000.0001)                 1.429494422142520E+05,      /* J =  3 */
(PID.TID 0000.0001)                 1.369168651734347E+05,      /* J =  4 */
(PID.TID 0000.0001)                 1.307174760228300E+05,      /* J =  5 */
(PID.TID 0000.0001)                 1.243588277631750E+05,      /* J =  6 */
(PID.TID 0000.0001)                 1.178486674278995E+05,      /* J =  7 */
(PID.TID 0000.0001)                 1.111949266445588E+05,      /* J =  8 */
(PID.TID 0000.0001)                 1.044057119713670E+05,      /* J =  9 */
(PID.TID 0000.0001)                 9.748929502060510E+04,      /* J = 10 */
(PID.TID 0000.0001)                 9.045410238093534E+04,      /* J = 11 */
(PID.TID 0000.0001)                 8.330870535090075E+04,      /* J = 12 */
(PID.TID 0000.0001)                 7.606180949611843E+04,      /* J = 13 */
(PID.TID 0000.0001)                 6.872224404288862E+04,      /* J = 14 */
(PID.TID 0000.0001)                 6.129895112114272E+04,      /* J = 15 */
(PID.TID 0000.0001)                 5.380097486983529E+04       /* J = 16 */
(PID.TID 0000.0001)     ;
(PID.TID 0000.0001) dyG =  /* dyG(:,1,:,1) ( units: m ) */
(PID.TID 0000.0001)    20 @  2.223898532891175E+05              /* I =  1: 20 */
(PID.TID 0000.0001)     ;
(PID.TID 0000.0001) dyG =  /* dyG(1,:,1,:) ( units: m ) */
(PID.TID 0000.0001)    16 @  2.223898532891175E+05              /* J =  1: 16 */
(PID.TID 0000.0001)     ;
(PID.TID 0000.0001) dxC =  /* dxC(:,1,:,1) ( units: m ) */
(PID.TID 0000.0001)    20 @  1.516695152377178E+05              /* I =  1: 20 */
(PID.TID 0000.0001)     ;
(PID.TID 0000.0001) dxC =  /* dxC(1,:,1,:) ( units: m ) */
(PID.TID 0000.0001)                 1.516695152377178E+05,      /* J =  1 */
(PID.TID 0000.0001)                 1.459008712061998E+05,      /* J =  2 */
(PID.TID 0000.0001)                 1.399544694374234E+05,      /* J =  3 */
(PID.TID 0000.0001)                 1.338375547059708E+05,      /* J =  4 */
(PID.TID 0000.0001)                 1.275575795302039E+05,      /* J =  5 */
(PID.TID 0000.0001)                 1.211221950925184E+05,      /* J =  6 */
(PID.TID 0000.0001)                 1.145392419175564E+05,      /* J =  7 */
(PID.TID 0000.0001)                 1.078167403197357E+05,      /* J =  8 */
(PID.TID 0000.0001)                 1.009628806317309E+05,      /* J =  9 */
(PID.TID 0000.0001)                 9.398601322581600E+04,      /* J = 10 */
(PID.TID 0000.0001)                 8.689463834022089E+04,      /* J = 11 */
(PID.TID 0000.0001)                 7.969739572290122E+04,      /* J = 12 */
(PID.TID 0000.0001)                 7.240305410533583E+04,      /* J = 13 */
(PID.TID 0000.0001)                 6.502050051917860E+04,      /* J = 14 */
(PID.TID 0000.0001)                 5.755872946877908E+04,      /* J = 15 */
(PID.TID 0000.0001)                 5.002683197276442E+04       /* J = 16 */
(PID.TID 0000.0001)     ;
(PID.TID 0000.0001) dyC =  /* dyC(:,1,:,1) ( units: m ) */
(PID.TID 0000.0001)    20 @  2.223898532891175E+05              /* I =  1: 20 */
(PID.TID 0000.0001)     ;
(PID.TID 0000.0001) dyC =  /* dyC(1,:,1,:) ( units: m ) */
(PID.TID 0000.0001)    16 @  2.223898532891175E+05              /* J =  1: 16 */
(PID.TID 0000.0001)     ;
(PID.TID 0000.0001) dxV =  /* dxV(:,1,:,1) ( units: m ) */
(PID.TID 0000.0001)    20 @  1.544849730924338E+05              /* I =  1: 20 */
(PID.TID 0000.0001)     ;
(PID.TID 0000.0001) dxV =  /* dxV(1,:,1,:) ( units: m ) */
(PID.TID 0000.0001)                 1.544849730924338E+05,      /* J =  1 */
(PID.TID 0000.0001)                 1.488078573794047E+05,      /* J =  2 */
(PID.TID 0000.0001)                 1.429494422142520E+05,      /* J =  3 */
(PID.TID 0000.0001)                 1.369168651734347E+05,      /* J =  4 */
(PID.TID 0000.0001)                 1.307174760228300E+05,      /* J =  5 */
(PID.TID 0000.0001)                 1.243588277631750E+05,      /* J =  6 */
(PID.TID 0000.0001)                 1.178486674278995E+05,      /* J =  7 */
(PID.TID 0000.0001)                 1.111949266445588E+05,      /* J =  8 */
(PID.TID 0000.0001)                 1.044057119713670E+05,      /* J =  9 */
(PID.TID 0000.0001)                 9.748929502060510E+04,      /* J = 10 */
(PID.TID 0000.0001)                 9.045410238093534E+04,      /* J = 11 */
(PID.TID 0000.0001)                 8.330870535090075E+04,      /* J = 12 */
(PID.TID 0000.0001)                 7.606180949611843E+04,      /* J = 13 */
(PID.TID 0000.0001)                 6.872224404288862E+04,      /* J = 14 */
(PID.TID 0000.0001)                 6.129895112114272E+04,      /* J = 15 */
(PID.TID 0000.0001)                 5.380097486983529E+04       /* J = 16 */
(PID.TID 0000.0001)     ;
(PID.TID 0000.0001) dyU =  /* dyU(:,1,:,1) ( units: m ) */
(PID.TID 0000.0001)    20 @  2.223898532891175E+05              /* I =  1: 20 */
(PID.TID 0000.0001)     ;
(PID.TID 0000.0001) dyU =  /* dyU(1,:,1,:) ( units: m ) */
(PID.TID 0000.0001)    16 @  2.223898532891175E+05              /* J =  1: 16 */
(PID.TID 0000.0001)     ;
(PID.TID 0000.0001) rA  =  /* rA (:,1,:,1) ( units: m^2 ) */
(PID.TID 0000.0001)    20 @  3.372804882275630E+10              /* I =  1: 20 */
(PID.TID 0000.0001)     ;
(PID.TID 0000.0001) rA  =  /* rA (1,:,1,:) ( units: m^2 ) */
(PID.TID 0000.0001)                 3.372804882275630E+10,      /* J =  1 */
(PID.TID 0000.0001)                 3.244522605358471E+10,      /* J =  2 */
(PID.TID 0000.0001)                 3.112287377427108E+10,      /* J =  3 */
(PID.TID 0000.0001)                 2.976260306737421E+10,      /* J =  4 */
(PID.TID 0000.0001)                 2.836607121321784E+10,      /* J =  5 */
(PID.TID 0000.0001)                 2.693497967074614E+10,      /* J =  6 */
(PID.TID 0000.0001)                 2.547107200456116E+10,      /* J =  7 */
(PID.TID 0000.0001)                 2.397613176065682E+10,      /* J =  8 */
(PID.TID 0000.0001)                 2.245198029344191E+10,      /* J =  9 */
(PID.TID 0000.0001)                 2.090047454670193E+10,      /* J = 10 */
(PID.TID 0000.0001)                 1.932350479119821E+10,      /* J = 11 */
(PID.TID 0000.0001)                 1.772299232166360E+10,      /* J = 12 */
(PID.TID 0000.0001)                 1.610088711600342E+10,      /* J = 13 */
(PID.TID 0000.0001)                 1.445916545954351E+10,      /* J = 14 */
(PID.TID 0000.0001)                 1.279982753723494E+10,      /* J = 15 */
(PID.TID 0000.0001)                 1.112489499673417E+10       /* J = 16 */
(PID.TID 0000.0001)     ;
(PID.TID 0000.0001) rAw =  /* rAw(:,1,:,1) ( units: m^2 ) */
(PID.TID 0000.0001)    20 @  3.372804882275630E+10              /* I =  1: 20 */
(PID.TID 0000.0001)     ;
(PID.TID 0000.0001) rAw =  /* rAw(1,:,1,:) ( units: m^2 ) */
(PID.TID 0000.0001)                 3.372804882275630E+10,      /* J =  1 */
(PID.TID 0000.0001)                 3.244522605358471E+10,      /* J =  2 */
(PID.TID 0000.0001)                 3.112287377427108E+10,      /* J =  3 */
(PID.TID 0000.0001)                 2.976260306737421E+10,      /* J =  4 */
(PID.TID 0000.0001)                 2.836607121321784E+10,      /* J =  5 */
(PID.TID 0000.0001)                 2.693497967074614E+10,      /* J =  6 */
(PID.TID 0000.0001)                 2.547107200456116E+10,      /* J =  7 */
(PID.TID 0000.0001)                 2.397613176065682E+10,      /* J =  8 */
(PID.TID 0000.0001)                 2.245198029344191E+10,      /* J =  9 */
(PID.TID 0000.0001)                 2.090047454670193E+10,      /* J = 10 */
(PID.TID 0000.0001)                 1.932350479119821E+10,      /* J = 11 */
(PID.TID 0000.0001)                 1.772299232166360E+10,      /* J = 12 */
(PID.TID 0000.0001)                 1.610088711600342E+10,      /* J = 13 */
(PID.TID 0000.0001)                 1.445916545954351E+10,      /* J = 14 */
(PID.TID 0000.0001)                 1.279982753723494E+10,      /* J = 15 */
(PID.TID 0000.0001)                 1.112489499673417E+10       /* J = 16 */
(PID.TID 0000.0001)     ;
(PID.TID 0000.0001) rAs =  /* rAs(:,1,:,1) ( units: m^2 ) */
(PID.TID 0000.0001)    20 @  3.435414629417918E+10              /* I =  1: 20 */
(PID.TID 0000.0001)     ;
(PID.TID 0000.0001) rAs =  /* rAs(1,:,1,:) ( units: m^2 ) */
(PID.TID 0000.0001)                 3.435414629417918E+10,      /* J =  1 */
(PID.TID 0000.0001)                 3.309167746093097E+10,      /* J =  2 */
(PID.TID 0000.0001)                 3.178889151607872E+10,      /* J =  3 */
(PID.TID 0000.0001)                 3.044737570361747E+10,      /* J =  4 */
(PID.TID 0000.0001)                 2.906876445392020E+10,      /* J =  5 */
(PID.TID 0000.0001)                 2.765473739243563E+10,      /* J =  6 */
(PID.TID 0000.0001)                 2.620701729332415E+10,      /* J =  7 */
(PID.TID 0000.0001)                 2.472736798052209E+10,      /* J =  8 */
(PID.TID 0000.0001)                 2.321759217879512E+10,      /* J =  9 */
(PID.TID 0000.0001)                 2.167952931739416E+10,      /* J = 10 */
(PID.TID 0000.0001)                 2.011505328899539E+10,      /* J = 11 */
(PID.TID 0000.0001)                 1.852607016665020E+10,      /* J = 12 */
(PID.TID 0000.0001)                 1.691451588152944E+10,      /* J = 13 */
(PID.TID 0000.0001)                 1.528235386428863E+10,      /* J = 14 */
(PID.TID 0000.0001)                 1.363157265293026E+10,      /* J = 15 */
(PID.TID 0000.0001)                 1.196418347007692E+10       /* J = 16 */
(PID.TID 0000.0001)     ;
(PID.TID 0000.0001) globalArea = /* Integrated horizontal Area (m^2) */
(PID.TID 0000.0001)                 3.562528105304879E+12
(PID.TID 0000.0001)     ;
(PID.TID 0000.0001) // =======================================================
(PID.TID 0000.0001) // End of Model config. summary
(PID.TID 0000.0001) // =======================================================
(PID.TID 0000.0001) 
(PID.TID 0000.0001) == Packages configuration : Check & print summary ==
(PID.TID 0000.0001) 
(PID.TID 0000.0001) KPP_CHECK: #define ALLOW_KPP
(PID.TID 0000.0001)  kpp_freq = /* frequency of KPP calculation */
(PID.TID 0000.0001)                 3.600000000000000E+03
(PID.TID 0000.0001)     ;
(PID.TID 0000.0001) KPP_ghatUseTotalDiffus= /* non-local term fct of total diffus */
(PID.TID 0000.0001)                   T
(PID.TID 0000.0001)     ;
(PID.TID 0000.0001) KPPuseDoubleDiff = /* include double diffusive contrib */
(PID.TID 0000.0001)                   F
(PID.TID 0000.0001)     ;
(PID.TID 0000.0001) LimitHblStable = /* limits depth of hbl if stable cond.*/
(PID.TID 0000.0001)                   T
(PID.TID 0000.0001)     ;
(PID.TID 0000.0001)  minKPPhbl = /* minimum KPPhbl value [m] */
(PID.TID 0000.0001)                 5.000000000000000E+00
(PID.TID 0000.0001)     ;
(PID.TID 0000.0001)  epsln     = /* constant [-] */
(PID.TID 0000.0001)                 9.999999999999999E-21
(PID.TID 0000.0001)     ;
(PID.TID 0000.0001)  phepsi    = /* constant [-] */
(PID.TID 0000.0001)                 1.000000000000000E-10
(PID.TID 0000.0001)     ;
(PID.TID 0000.0001)  epsilon   = /* constant [-] */
(PID.TID 0000.0001)                 1.000000000000000E-01
(PID.TID 0000.0001)     ;
(PID.TID 0000.0001)  vonk      = /* Von Karmans constant [-] */
(PID.TID 0000.0001)                 4.000000000000000E-01
(PID.TID 0000.0001)     ;
(PID.TID 0000.0001)  dB_dz     = /* maximum N^2 in mixed layer [s^-2] */
(PID.TID 0000.0001)                 5.200000000000000E-05
(PID.TID 0000.0001)     ;
(PID.TID 0000.0001)  conc1     = /* scalar constant [-] */
(PID.TID 0000.0001)                 5.000000000000000E+00
(PID.TID 0000.0001)     ;
(PID.TID 0000.0001)  conam     = /* scalar constant [-] */
(PID.TID 0000.0001)                 1.257000000000000E+00
(PID.TID 0000.0001)     ;
(PID.TID 0000.0001)  concm     = /* scalar constant [-] */
(PID.TID 0000.0001)                 8.380000000000001E+00
(PID.TID 0000.0001)     ;
(PID.TID 0000.0001)  conc2     = /* scalar constant [-] */
(PID.TID 0000.0001)                 1.600000000000000E+01
(PID.TID 0000.0001)     ;
(PID.TID 0000.0001)  conas     = /* scalar constant [-] */
(PID.TID 0000.0001)                -2.886000000000000E+01
(PID.TID 0000.0001)     ;
(PID.TID 0000.0001)  concs     = /* scalar constant [-] */
(PID.TID 0000.0001)                 9.895999999999999E+01
(PID.TID 0000.0001)     ;
(PID.TID 0000.0001)  conc3     = /* scalar constant [-] */
(PID.TID 0000.0001)                 1.600000000000000E+01
(PID.TID 0000.0001)     ;
(PID.TID 0000.0001)  zetam     = /* scalar constant [-] */
(PID.TID 0000.0001)                -2.000000000000000E-01
(PID.TID 0000.0001)     ;
(PID.TID 0000.0001)  zetas     = /* scalar constant [-] */
(PID.TID 0000.0001)                -1.000000000000000E+00
(PID.TID 0000.0001)     ;
(PID.TID 0000.0001)  Ricr      = /* critical bulk Richardson Number [-] */
(PID.TID 0000.0001)                 3.000000000000000E-01
(PID.TID 0000.0001)     ;
(PID.TID 0000.0001)  cekman    = /* coeff for Ekman depth [-] */
(PID.TID 0000.0001)                 7.000000000000000E-01
(PID.TID 0000.0001)     ;
(PID.TID 0000.0001)  cmonob    = /* coeff for Monin-Obukhov depth [-] */
(PID.TID 0000.0001)                 1.000000000000000E+00
(PID.TID 0000.0001)     ;
(PID.TID 0000.0001)  concv     = /* buoyancy freq ratio [-] */
(PID.TID 0000.0001)                 1.800000000000000E+00
(PID.TID 0000.0001)     ;
(PID.TID 0000.0001)  hbf       = /* solar radiation depth ratio [-] */
(PID.TID 0000.0001)                 1.000000000000000E+00
(PID.TID 0000.0001)     ;
(PID.TID 0000.0001)  zmin      = /* minimum for zehat in table [m3/s3] */
(PID.TID 0000.0001)                -4.000000000000000E-07
(PID.TID 0000.0001)     ;
(PID.TID 0000.0001)  zmax      = /* maximum for zehat in table [m3/s3] */
(PID.TID 0000.0001)                 0.000000000000000E+00
(PID.TID 0000.0001)     ;
(PID.TID 0000.0001)  umin      = /* minimum for ustar in table [m/s] */
(PID.TID 0000.0001)                 0.000000000000000E+00
(PID.TID 0000.0001)     ;
(PID.TID 0000.0001)  umax      = /* maximum for ustar in table [m/s] */
(PID.TID 0000.0001)                 4.000000000000000E-02
(PID.TID 0000.0001)     ;
(PID.TID 0000.0001) num_v_smooth_Ri = /* number of vertical smoothing */
(PID.TID 0000.0001)                       0
(PID.TID 0000.0001)     ;
(PID.TID 0000.0001)  Riinfty   = /* shear instability Ri number limit [-] */
(PID.TID 0000.0001)                 7.000000000000000E-01
(PID.TID 0000.0001)     ;
(PID.TID 0000.0001)  BVSQcon   = /* Brunt-Vaisala squared (=N^2) [s^-2] */
(PID.TID 0000.0001)                -2.000000000000000E-05
(PID.TID 0000.0001)     ;
(PID.TID 0000.0001)  difm0     = /* max viscosity from shear instab. [m2/s] */
(PID.TID 0000.0001)                 5.000000000000000E-03
(PID.TID 0000.0001)     ;
(PID.TID 0000.0001)  difs0     = /* max diffusiv. from shear instab. [m2/s] */
(PID.TID 0000.0001)                 5.000000000000000E-03
(PID.TID 0000.0001)     ;
(PID.TID 0000.0001)  dift0     = /* max diffusiv. from shear instab. [m2/s] */
(PID.TID 0000.0001)                 5.000000000000000E-03
(PID.TID 0000.0001)     ;
(PID.TID 0000.0001)  difmcon   = /* convective viscosity [m2/s] */
(PID.TID 0000.0001)                 1.000000000000000E-01
(PID.TID 0000.0001)     ;
(PID.TID 0000.0001)  difscon   = /* convective diffusiv. [m2/s] */
(PID.TID 0000.0001)                 1.000000000000000E-01
(PID.TID 0000.0001)     ;
(PID.TID 0000.0001)  diftcon   = /* convective diffusiv. [m2/s] */
(PID.TID 0000.0001)                 1.000000000000000E-01
(PID.TID 0000.0001)     ;
(PID.TID 0000.0001)  Rrho0     = /* double diffusion density ratio [-] */
(PID.TID 0000.0001)                 1.900000000000000E+00
(PID.TID 0000.0001)     ;
(PID.TID 0000.0001)  dsfmax    = /* max diffusiv. for salt fingering [m2/s] */
(PID.TID 0000.0001)                 1.000000000000000E-02
(PID.TID 0000.0001)     ;
(PID.TID 0000.0001)  cstar     = /* coeff for non-locak transport [-] */
(PID.TID 0000.0001)                 1.000000000000000E+01
(PID.TID 0000.0001)     ;
(PID.TID 0000.0001) KPPwriteState = /* write KPP fields to file */
(PID.TID 0000.0001)                   T
(PID.TID 0000.0001)     ;
(PID.TID 0000.0001)  kpp_dumpFreq = /* dump freq of KPP output */
(PID.TID 0000.0001)                 0.000000000000000E+00
(PID.TID 0000.0001)     ;
(PID.TID 0000.0001)  kpp_taveFreq = /* time-averaging freq of KPP output */
(PID.TID 0000.0001)                 0.000000000000000E+00
(PID.TID 0000.0001)     ;
(PID.TID 0000.0001) 
(PID.TID 0000.0001) GMREDI_CHECK: #define GMREDI
(PID.TID 0000.0001) GM_AdvForm =     /* if FALSE => use SkewFlux Form */
(PID.TID 0000.0001)                   F
(PID.TID 0000.0001)     ;
(PID.TID 0000.0001) GM_InMomAsStress = /* if TRUE => apply as Eddy Stress */
(PID.TID 0000.0001)                   F
(PID.TID 0000.0001)     ;
(PID.TID 0000.0001) GM_AdvSeparate = /* Calc Bolus & Euler Adv. separately */
(PID.TID 0000.0001)                   F
(PID.TID 0000.0001)     ;
(PID.TID 0000.0001) GM_ExtraDiag =   /* Tensor Extra Diag (line 1&2) non 0 */
(PID.TID 0000.0001)                   F
(PID.TID 0000.0001)     ;
(PID.TID 0000.0001) GM_isopycK =    /* Background Isopyc. Diffusivity [m^2/s] */
(PID.TID 0000.0001)                 1.000000000000000E+03
(PID.TID 0000.0001)     ;
(PID.TID 0000.0001) GM_skewflx*K =  /* Background GM_SkewFlx Diffusivity [m^2/s] */
(PID.TID 0000.0001)                 1.000000000000000E+03
(PID.TID 0000.0001)     ;
(PID.TID 0000.0001) GM_advec*K =    /* Backg. GM-Advec(=Bolus) Diffusivity [m^2/s]*/
(PID.TID 0000.0001)                 0.000000000000000E+00
(PID.TID 0000.0001)     ;
(PID.TID 0000.0001) GM_Kmin_horiz = /* Minimum Horizontal Diffusivity [m^2/s] */
(PID.TID 0000.0001)                 5.000000000000000E+01
(PID.TID 0000.0001)     ;
(PID.TID 0000.0001) GM_Visbeck_alpha = /* Visbeck alpha coeff. [-] */
(PID.TID 0000.0001)                 0.000000000000000E+00
(PID.TID 0000.0001)     ;
(PID.TID 0000.0001) GM_Small_Number =  /* epsilon used in slope calc */
(PID.TID 0000.0001)                 9.999999999999999E-21
(PID.TID 0000.0001)     ;
(PID.TID 0000.0001) GM_slopeSqCutoff = /* Slope^2 cut-off value */
(PID.TID 0000.0001)                 1.000000000000000E+08
(PID.TID 0000.0001)     ;
(PID.TID 0000.0001) GM_taper_scheme =  /* Type of Tapering/Clipping scheme */
(PID.TID 0000.0001)               'dm95                                    '
(PID.TID 0000.0001)     ;
(PID.TID 0000.0001) GM_maxSlope =  /* Maximum Slope (Tapering/Clipping) */
(PID.TID 0000.0001)                 1.000000000000000E-02
(PID.TID 0000.0001)     ;
(PID.TID 0000.0001) GM_facTrL2dz = /* Minimum Trans.Layer Thick. (factor of dz) */
(PID.TID 0000.0001)                 1.000000000000000E+00
(PID.TID 0000.0001)     ;
(PID.TID 0000.0001) GM_facTrL2ML = /* Max.Trans.Layer Thick. (factor of MxL Depth)*/
(PID.TID 0000.0001)                 5.000000000000000E+00
(PID.TID 0000.0001)     ;
(PID.TID 0000.0001) GM_maxTransLay = /* Maximum Transition Layer Thickness [m] */
(PID.TID 0000.0001)                 5.000000000000000E+02
(PID.TID 0000.0001)     ;
(PID.TID 0000.0001) GM_UseBVP = /* if TRUE => use bvp a la Ferrari et al. (2010) */
(PID.TID 0000.0001)                   F
(PID.TID 0000.0001)     ;
(PID.TID 0000.0001) GM_BVP_ModeNumber = /* Vertical mode number for BVP wave speed */
(PID.TID 0000.0001)                       1
(PID.TID 0000.0001)     ;
(PID.TID 0000.0001) GM_BVP_cMin = /* Minimum wave speed for BVP [m/s] */
(PID.TID 0000.0001)                 1.000000000000000E-01
(PID.TID 0000.0001)     ;
(PID.TID 0000.0001) GM_useSubMeso = /* if TRUE => use Sub-Meso param. (B.Fox-Kemper) */
(PID.TID 0000.0001)                   F
(PID.TID 0000.0001)     ;
(PID.TID 0000.0001) subMeso_Ceff = /* efficiency coeff. of Mixed-Layer Eddies [-] */
(PID.TID 0000.0001)                 7.000000000000001E-02
(PID.TID 0000.0001)     ;
(PID.TID 0000.0001) subMeso_invTau = /* inverse of Sub-Meso mixing time-scale [/s] */
(PID.TID 0000.0001)                 2.000000000000000E-06
(PID.TID 0000.0001)     ;
(PID.TID 0000.0001) subMeso_LfMin = /* minimum length-scale "Lf" [m] */
(PID.TID 0000.0001)                 1.000000000000000E+03
(PID.TID 0000.0001)     ;
(PID.TID 0000.0001) subMeso_Lmax = /* maximum grid-scale length [m] */
(PID.TID 0000.0001)                 1.100000000000000E+05
(PID.TID 0000.0001)     ;
(PID.TID 0000.0001) GM_useLeithQG = /* if TRUE => add QG Leith viscosity to GMRedi tensor */
(PID.TID 0000.0001)                   F
(PID.TID 0000.0001)     ;
(PID.TID 0000.0001) EXF_CHECK: #define ALLOW_EXF
(PID.TID 0000.0001) SEAICE_CHECK: #define ALLOW_SEAICE
(PID.TID 0000.0001) CTRL_CHECK:  --> Starts to check CTRL set-up
(PID.TID 0000.0001) CTRL_CHECK:  <-- Ends Normally
(PID.TID 0000.0001) 
(PID.TID 0000.0001) COST_CHECK: #define ALLOW_COST
(PID.TID 0000.0001) GRDCHK_CHECK: grdchk package
(PID.TID 0000.0001) etaday defined by gencost   0
(PID.TID 0000.0001) GAD_CHECK: #define ALLOW_GENERIC_ADVDIFF
(PID.TID 0000.0001) // =======================================================
(PID.TID 0000.0001) // Check Model config. (CONFIG_CHECK):
(PID.TID 0000.0001) // CONFIG_CHECK : Normal End
(PID.TID 0000.0001) // =======================================================
(PID.TID 0000.0001) 
(PID.TID 0000.0001)  MDS_WRITE_FIELD: it,rec,kS,kL,kH=      -1     1   1   1   1 file=XC
(PID.TID 0000.0001)  MDS_WRITE_FIELD: it,rec,kS,kL,kH=      -1     1   1   1   1 file=YC
(PID.TID 0000.0001)  MDS_WRITE_FIELD: it,rec,kS,kL,kH=      -1     1   1   1   1 file=XG
(PID.TID 0000.0001)  MDS_WRITE_FIELD: it,rec,kS,kL,kH=      -1     1   1   1   1 file=YG
(PID.TID 0000.0001)  MDS_WRITE_FIELD: it,rec,kS,kL,kH=      -1     1   1   1   1 file=RAC
(PID.TID 0000.0001)  MDS_WRITE_FIELD: it,rec,kS,kL,kH=      -1     1   1   1   1 file=RAW
(PID.TID 0000.0001)  MDS_WRITE_FIELD: it,rec,kS,kL,kH=      -1     1   1   1   1 file=RAS
(PID.TID 0000.0001)  MDS_WRITE_FIELD: it,rec,kS,kL,kH=      -1     1   1   1   1 file=RAZ
(PID.TID 0000.0001)  MDS_WRITE_FIELD: it,rec,kS,kL,kH=      -1     1   1   1   1 file=DXG
(PID.TID 0000.0001)  MDS_WRITE_FIELD: it,rec,kS,kL,kH=      -1     1   1   1   1 file=DYG
(PID.TID 0000.0001)  MDS_WRITE_FIELD: it,rec,kS,kL,kH=      -1     1   1   1   1 file=DXC
(PID.TID 0000.0001)  MDS_WRITE_FIELD: it,rec,kS,kL,kH=      -1     1   1   1   1 file=DYC
(PID.TID 0000.0001)  MDS_WRITE_FIELD: it,rec,kS,kL,kH=      -1     1   1   1   1 file=DXF
(PID.TID 0000.0001)  MDS_WRITE_FIELD: it,rec,kS,kL,kH=      -1     1   1   1   1 file=DYF
(PID.TID 0000.0001)  MDS_WRITE_FIELD: it,rec,kS,kL,kH=      -1     1   1   1   1 file=DXV
(PID.TID 0000.0001)  MDS_WRITE_FIELD: it,rec,kS,kL,kH=      -1     1   1   1   1 file=DYU
(PID.TID 0000.0001)  MDS_WRITE_FIELD: it,rec,kS,kL,kH=      -1     1   1   1   1 file=Depth
(PID.TID 0000.0001)  MDS_WRITE_FIELD: it,rec,kS,kL,kH=      -1     1   1   1   1 file=rLowC
(PID.TID 0000.0001)  MDS_WRITE_FIELD: it,rec,kS,kL,kH=      -1     1   1   1   1 file=rLowW
(PID.TID 0000.0001)  MDS_WRITE_FIELD: it,rec,kS,kL,kH=      -1     1   1   1   1 file=rLowS
(PID.TID 0000.0001)  MDS_WRITE_FIELD: it,rec,kS,kL,kH=      -1     1   1   1   1 file=rSurfC
(PID.TID 0000.0001)  MDS_WRITE_FIELD: it,rec,kS,kL,kH=      -1     1   1   1   1 file=rSurfW
(PID.TID 0000.0001)  MDS_WRITE_FIELD: it,rec,kS,kL,kH=      -1     1   1   1   1 file=rSurfS
(PID.TID 0000.0001)  MDS_WRITE_FIELD: it,rec,kS,kL,kH=       0     1  23   1  23 file=hFacC
(PID.TID 0000.0001)  MDS_WRITE_FIELD: it,rec,kS,kL,kH=       0     1  23   1  23 file=hFacW
(PID.TID 0000.0001)  MDS_WRITE_FIELD: it,rec,kS,kL,kH=       0     1  23   1  23 file=hFacS
(PID.TID 0000.0001)  MDS_WRITEVEC_LOC: open file: RC.data
(PID.TID 0000.0001)  MDS_WR_REC_RS: iRec,Dim =         1         23
(PID.TID 0000.0001)  MDS_WRITEVEC_LOC: open file: RF.data
(PID.TID 0000.0001)  MDS_WR_REC_RS: iRec,Dim =         1         24
(PID.TID 0000.0001)  MDS_WRITEVEC_LOC: open file: DRC.data
(PID.TID 0000.0001)  MDS_WR_REC_RS: iRec,Dim =         1         24
(PID.TID 0000.0001)  MDS_WRITEVEC_LOC: open file: DRF.data
(PID.TID 0000.0001)  MDS_WR_REC_RS: iRec,Dim =         1         23
(PID.TID 0000.0001)  MDS_WRITEVEC_LOC: open file: PHrefF.data
(PID.TID 0000.0001)  MDS_WR_REC_RS: iRec,Dim =         1         24
(PID.TID 0000.0001)  MDS_WRITEVEC_LOC: open file: PHrefC.data
(PID.TID 0000.0001)  MDS_WR_REC_RS: iRec,Dim =         1         23
(PID.TID 0000.0001)  MDS_READ_FIELD: opening global file: LevCli_temp.labsea1979
(PID.TID 0000.0001) // =======================================================
(PID.TID 0000.0001) // Field Initial Temperature at iteration          1
(PID.TID 0000.0001) // CMIN =          9.205863475799561E-01
(PID.TID 0000.0001) // CMAX =          1.333307647705078E+01
(PID.TID 0000.0001) // CINT =          4.597218566470676E-01
(PID.TID 0000.0001) // SYMBOLS (CMIN->CMAX): -abcdefghijklmnopqrstuvwxyz+
(PID.TID 0000.0001) //                  0.0: .
(PID.TID 0000.0001) // RANGE I (Lo:Hi:Step):(     1:    20:     1)
(PID.TID 0000.0001) // RANGE J (Lo:Hi:Step):(    16:     1:    -1)
(PID.TID 0000.0001) // RANGE K (Lo:Hi:Step):(   1:   1:   1)
(PID.TID 0000.0001) // =======================================================
(PID.TID 0000.0001) K =   1
(PID.TID 0000.0001)                I=10      I=20
(PID.TID 0000.0001) |--J--|123456789|123456789|
(PID.TID 0000.0001)     16 .----...............
(PID.TID 0000.0001)     15 aabaaaaaaaa.........
(PID.TID 0000.0001)     14 .ccccccbbbbc........
(PID.TID 0000.0001)     13 ....dddddddd........
(PID.TID 0000.0001)     12 ......dcdddddd......
(PID.TID 0000.0001)     11 ........cccdd.......
(PID.TID 0000.0001)     10 .......bbcdddd......
(PID.TID 0000.0001)      9 .......cdeeffff....j
(PID.TID 0000.0001)      8 .....ccdefgghhggh..k
(PID.TID 0000.0001)      7 ......d.fghiiiiiijkl
(PID.TID 0000.0001)      6 .........ghhijjjkklm
(PID.TID 0000.0001)      5 ..........hhhijklmnn
(PID.TID 0000.0001)      4 ............ghikmopq
(PID.TID 0000.0001)      3 ..........k.hhiknqsu
(PID.TID 0000.0001)      2 .......oonm..ijknqux
(PID.TID 0000.0001)      1 ........qponlkklosw+
(PID.TID 0000.0001) // =======================================================
(PID.TID 0000.0001) // END OF FIELD                                          =
(PID.TID 0000.0001) // =======================================================
(PID.TID 0000.0001) 
(PID.TID 0000.0001)  MDS_READ_FIELD: opening global file: LevCli_salt.labsea1979
(PID.TID 0000.0001) // =======================================================
(PID.TID 0000.0001) // Field Initial Salinity at iteration          1
(PID.TID 0000.0001) // CMIN =          3.012869834899902E+01
(PID.TID 0000.0001) // CMAX =          3.487366104125977E+01
(PID.TID 0000.0001) // CINT =          1.757393589726201E-01
(PID.TID 0000.0001) // SYMBOLS (CMIN->CMAX): -abcdefghijklmnopqrstuvwxyz+
(PID.TID 0000.0001) //                  0.0: .
(PID.TID 0000.0001) // RANGE I (Lo:Hi:Step):(     1:    20:     1)
(PID.TID 0000.0001) // RANGE J (Lo:Hi:Step):(    16:     1:    -1)
(PID.TID 0000.0001) // RANGE K (Lo:Hi:Step):(   1:   1:   1)
(PID.TID 0000.0001) // =======================================================
(PID.TID 0000.0001) K =   1
(PID.TID 0000.0001)                I=10      I=20
(PID.TID 0000.0001) |--J--|123456789|123456789|
(PID.TID 0000.0001)     16 .nnos...............
(PID.TID 0000.0001)     15 lnoppppppol.........
(PID.TID 0000.0001)     14 .nponmllllmn........
(PID.TID 0000.0001)     13 ....ljhijkmo........
(PID.TID 0000.0001)     12 ......ghjlmors......
(PID.TID 0000.0001)     11 ........jmnpr.......
(PID.TID 0000.0001)     10 .......jlnpqrq......
(PID.TID 0000.0001)      9 .......noqsttts....w
(PID.TID 0000.0001)      8 .....jlnpsuvwwutu..x
(PID.TID 0000.0001)      7 ......j.rruwxyxxwxxy
(PID.TID 0000.0001)      6 .........ppruxyyzzzz
(PID.TID 0000.0001)      5 ..........ijoswyzzzz
(PID.TID 0000.0001)      4 ............iotwyzzz
(PID.TID 0000.0001)      3 ..........g.imquwyzz
(PID.TID 0000.0001)      2 .......-bef..knqtvxz
(PID.TID 0000.0001)      1 ........-cegijlosvy+
(PID.TID 0000.0001) // =======================================================
(PID.TID 0000.0001) // END OF FIELD                                          =
(PID.TID 0000.0001) // =======================================================
(PID.TID 0000.0001) 
(PID.TID 0000.0001) Start initial hydrostatic pressure computation
(PID.TID 0000.0001) Pressure is predetermined for buoyancyRelation OCEANIC
(PID.TID 0000.0001) 
(PID.TID 0000.0001)  write diagnostics summary to file ioUnit:      6
Iter.Nb:         0 ; Time(s):  0.0000000000000E+00
------------------------------------------------------------------------
2D/3D diagnostics: Number of lists:     4
------------------------------------------------------------------------
listId=    1 ; file name: diags/state_2d_set1
 nFlds, nActive,       freq     &     phase        , nLev               
   16  |   16  |      3600.000000         0.000000 |   1
 levels:   1
 diag# | name   |   ipt  |  iMate | kLev|   count |   mate.C|           
    23 |ETAN    |      1 |      0 |   1 |       0 |
   294 |SIarea  |      2 |      0 |   1 |       0 |
   297 |SIheff  |      3 |      0 |   1 |       0 |
   299 |SIhsnow |      4 |      0 |   1 |       0 |
    25 |DETADT2 |      5 |      0 |   1 |       0 |
    73 |PHIBOT  |      6 |      0 |   1 |       0 |
    82 |sIceLoad|      7 |      0 |   1 |       0 |
    76 |MXLDEPTH|      8 |      0 |   1 |       0 |
   325 |SIatmFW |      9 |      0 |   1 |       0 |
    85 |oceQnet |     10 |      0 |   1 |       0 |
    83 |oceFWflx|     11 |      0 |   1 |       0 |
    79 |oceTAUX |     12 |     13 |   1 |       0 |       0 |
    80 |oceTAUY |     13 |     12 |   1 |       0 |       0 |
   311 |SIuice  |     14 |     15 |   1 |       0 |       0 |
   312 |SIvice  |     15 |     14 |   1 |       0 |       0 |
    24 |ETANSQ  |     16 |      0 |   1 |       0 |
------------------------------------------------------------------------
listId=    2 ; file name: diags/state_3d_set1
 nFlds, nActive,       freq     &     phase        , nLev               
    2  |    2  |      3600.000000         0.000000 |  23
 levels:   1   2   3   4   5   6   7   8   9  10  11  12  13  14  15  16  17  18  19  20  21  22  23
 diag# | name   |   ipt  |  iMate | kLev|   count |   mate.C|           
    26 |THETA   |     17 |      0 |  23 |       0 |
    27 |SALT    |     40 |      0 |  23 |       0 |
------------------------------------------------------------------------
listId=    3 ; file name: diags/trsp_3d_set1
 nFlds, nActive,       freq     &     phase        , nLev               
    2  |    2  |      3600.000000         0.000000 |  23
 levels:   1   2   3   4   5   6   7   8   9  10  11  12  13  14  15  16  17  18  19  20  21  22  23
 diag# | name   |   ipt  |  iMate | kLev|   count |   mate.C|           
    45 |UVELMASS|     63 |     86 |  23 |       0 |       0 |
    46 |VVELMASS|     86 |     63 |  23 |       0 |       0 |
------------------------------------------------------------------------
listId=    4 ; file name: diags/exf_zflux_set1
 nFlds, nActive,       freq     &     phase        , nLev               
   18  |   18  |      3600.000000         0.000000 |   1
 levels:   1
 diag# | name   |   ipt  |  iMate | kLev|   count |   mate.C|           
   224 |EXFpreci|    109 |      0 |   1 |       0 |
   223 |EXFevap |    110 |      0 |   1 |       0 |
   228 |EXFroff |    111 |      0 |   1 |       0 |
   226 |EXFempmr|    112 |      0 |   1 |       0 |
   212 |EXFswdn |    113 |      0 |   1 |       0 |
   211 |EXFlwdn |    114 |      0 |   1 |       0 |
   210 |EXFswnet|    115 |      0 |   1 |       0 |
   209 |EXFlwnet|    116 |      0 |   1 |       0 |
   213 |EXFqnet |    117 |      0 |   1 |       0 |
   221 |EXFatemp|    118 |      0 |   1 |       0 |
   222 |EXFaqh  |    119 |      0 |   1 |       0 |
   214 |EXFtaux |    120 |      0 |   1 |       0 |
   215 |EXFtauy |    121 |      0 |   1 |       0 |
   216 |EXFuwind|    122 |      0 |   1 |       0 |
   217 |EXFvwind|    123 |      0 |   1 |       0 |
   227 |EXFpress|    124 |      0 |   1 |       0 |
   207 |EXFhs   |    125 |      0 |   1 |       0 |
   208 |EXFhl   |    126 |      0 |   1 |       0 |
------------------------------------------------------------------------
Global & Regional Statistics diagnostics: Number of lists:     0
------------------------------------------------------------------------
(PID.TID 0000.0001) // =======================================================
(PID.TID 0000.0001) // Field Current HEFFM    at iteration          0
(PID.TID 0000.0001) // CMIN =          1.000000000000000E+00
(PID.TID 0000.0001) // CMAX =          1.000000000000000E+00
(PID.TID 0000.0001) // CINT =          0.000000000000000E+00
(PID.TID 0000.0001) // SYMBOLS (CMIN->CMAX): -abcdefghijklmnopqrstuvwxyz+
(PID.TID 0000.0001) //                  0.0: .
(PID.TID 0000.0001) // RANGE I (Lo:Hi:Step):(    -3:    24:     1)
(PID.TID 0000.0001) // RANGE J (Lo:Hi:Step):(    20:    -3:    -1)
(PID.TID 0000.0001) // RANGE K (Lo:Hi:Step):(   1:   1:   1)
(PID.TID 0000.0001) // =======================================================
(PID.TID 0000.0001) // =======================================================
(PID.TID 0000.0001) // END OF FIELD                                          =
(PID.TID 0000.0001) // =======================================================
(PID.TID 0000.0001) 
(PID.TID 0000.0001) // =======================================================
(PID.TID 0000.0001) // Field Current seaiceMaskU at iteration          0
(PID.TID 0000.0001) // CMIN =          1.000000000000000E+00
(PID.TID 0000.0001) // CMAX =          1.000000000000000E+00
(PID.TID 0000.0001) // CINT =          0.000000000000000E+00
(PID.TID 0000.0001) // SYMBOLS (CMIN->CMAX): -abcdefghijklmnopqrstuvwxyz+
(PID.TID 0000.0001) //                  0.0: .
(PID.TID 0000.0001) // RANGE I (Lo:Hi:Step):(    -3:    24:     1)
(PID.TID 0000.0001) // RANGE J (Lo:Hi:Step):(    20:    -3:    -1)
(PID.TID 0000.0001) // RANGE K (Lo:Hi:Step):(   1:   1:   1)
(PID.TID 0000.0001) // =======================================================
(PID.TID 0000.0001) // =======================================================
(PID.TID 0000.0001) // END OF FIELD                                          =
(PID.TID 0000.0001) // =======================================================
(PID.TID 0000.0001) 
(PID.TID 0000.0001) // =======================================================
(PID.TID 0000.0001) // Field Current seaiceMaskV at iteration          0
(PID.TID 0000.0001) // CMIN =          1.000000000000000E+00
(PID.TID 0000.0001) // CMAX =          1.000000000000000E+00
(PID.TID 0000.0001) // CINT =          0.000000000000000E+00
(PID.TID 0000.0001) // SYMBOLS (CMIN->CMAX): -abcdefghijklmnopqrstuvwxyz+
(PID.TID 0000.0001) //                  0.0: .
(PID.TID 0000.0001) // RANGE I (Lo:Hi:Step):(    -3:    24:     1)
(PID.TID 0000.0001) // RANGE J (Lo:Hi:Step):(    20:    -3:    -1)
(PID.TID 0000.0001) // RANGE K (Lo:Hi:Step):(   1:   1:   1)
(PID.TID 0000.0001) // =======================================================
(PID.TID 0000.0001) // =======================================================
(PID.TID 0000.0001) // END OF FIELD                                          =
(PID.TID 0000.0001) // =======================================================
(PID.TID 0000.0001) 
(PID.TID 0000.0001) CTRL_INIT_REC: Getting record indices for xx_atemp
(PID.TID 0000.0001) CTRL_INIT_REC: Record indices for xx_atemp:
(PID.TID 0000.0001) CTRL_INIT_REC: startrec =          1, endrec =         11
(PID.TID 0000.0001)  MDS_READ_FIELD: opening global file: xx_atemp.0000000001.data
(PID.TID 0000.0001)  MDS_WRITE_FIELD: it,rec,kS,kL,kH=       1     1   1   1   1 file=xx_atemp.effective.0000000001
(PID.TID 0000.0001)  MDS_READ_FIELD: opening global file: xx_atemp.0000000001.data
(PID.TID 0000.0001)  MDS_WRITE_FIELD: it,rec,kS,kL,kH=       1     2   1   1   1 file=xx_atemp.effective.0000000001
(PID.TID 0000.0001)  MDS_READ_FIELD: opening global file: xx_atemp.0000000001.data
(PID.TID 0000.0001)  MDS_WRITE_FIELD: it,rec,kS,kL,kH=       1     3   1   1   1 file=xx_atemp.effective.0000000001
(PID.TID 0000.0001)  MDS_READ_FIELD: opening global file: xx_atemp.0000000001.data
(PID.TID 0000.0001)  MDS_WRITE_FIELD: it,rec,kS,kL,kH=       1     4   1   1   1 file=xx_atemp.effective.0000000001
(PID.TID 0000.0001)  MDS_READ_FIELD: opening global file: xx_atemp.0000000001.data
(PID.TID 0000.0001)  MDS_WRITE_FIELD: it,rec,kS,kL,kH=       1     5   1   1   1 file=xx_atemp.effective.0000000001
(PID.TID 0000.0001)  MDS_READ_FIELD: opening global file: xx_atemp.0000000001.data
(PID.TID 0000.0001)  MDS_WRITE_FIELD: it,rec,kS,kL,kH=       1     6   1   1   1 file=xx_atemp.effective.0000000001
(PID.TID 0000.0001)  MDS_READ_FIELD: opening global file: xx_atemp.0000000001.data
(PID.TID 0000.0001)  MDS_WRITE_FIELD: it,rec,kS,kL,kH=       1     7   1   1   1 file=xx_atemp.effective.0000000001
(PID.TID 0000.0001)  MDS_READ_FIELD: opening global file: xx_atemp.0000000001.data
(PID.TID 0000.0001)  MDS_WRITE_FIELD: it,rec,kS,kL,kH=       1     8   1   1   1 file=xx_atemp.effective.0000000001
(PID.TID 0000.0001)  MDS_READ_FIELD: opening global file: xx_atemp.0000000001.data
(PID.TID 0000.0001)  MDS_WRITE_FIELD: it,rec,kS,kL,kH=       1     9   1   1   1 file=xx_atemp.effective.0000000001
(PID.TID 0000.0001)  MDS_READ_FIELD: opening global file: xx_atemp.0000000001.data
(PID.TID 0000.0001)  MDS_WRITE_FIELD: it,rec,kS,kL,kH=       1    10   1   1   1 file=xx_atemp.effective.0000000001
(PID.TID 0000.0001)  MDS_READ_FIELD: opening global file: xx_atemp.0000000001.data
(PID.TID 0000.0001)  MDS_WRITE_FIELD: it,rec,kS,kL,kH=       1    11   1   1   1 file=xx_atemp.effective.0000000001
(PID.TID 0000.0001)  MDS_READ_FIELD: opening global file: xx_atemp.effective.0000000001.data
(PID.TID 0000.0001)  MDS_READ_FIELD: opening global file: ones_64b.bin
(PID.TID 0000.0001)  MDS_WRITE_FIELD: it,rec,kS,kL,kH=       1     1   1   1   1 file=xx_atemp.effective.0000000001
(PID.TID 0000.0001)  MDS_READ_FIELD: opening global file: xx_atemp.effective.0000000001.data
(PID.TID 0000.0001)  MDS_READ_FIELD: opening global file: ones_64b.bin
(PID.TID 0000.0001)  MDS_WRITE_FIELD: it,rec,kS,kL,kH=       1     2   1   1   1 file=xx_atemp.effective.0000000001
(PID.TID 0000.0001)  MDS_READ_FIELD: opening global file: xx_atemp.effective.0000000001.data
(PID.TID 0000.0001)  MDS_READ_FIELD: opening global file: ones_64b.bin
(PID.TID 0000.0001)  MDS_WRITE_FIELD: it,rec,kS,kL,kH=       1     3   1   1   1 file=xx_atemp.effective.0000000001
(PID.TID 0000.0001)  MDS_READ_FIELD: opening global file: xx_atemp.effective.0000000001.data
(PID.TID 0000.0001)  MDS_READ_FIELD: opening global file: ones_64b.bin
(PID.TID 0000.0001)  MDS_WRITE_FIELD: it,rec,kS,kL,kH=       1     4   1   1   1 file=xx_atemp.effective.0000000001
(PID.TID 0000.0001)  MDS_READ_FIELD: opening global file: xx_atemp.effective.0000000001.data
(PID.TID 0000.0001)  MDS_READ_FIELD: opening global file: ones_64b.bin
(PID.TID 0000.0001)  MDS_WRITE_FIELD: it,rec,kS,kL,kH=       1     5   1   1   1 file=xx_atemp.effective.0000000001
(PID.TID 0000.0001)  MDS_READ_FIELD: opening global file: xx_atemp.effective.0000000001.data
(PID.TID 0000.0001)  MDS_READ_FIELD: opening global file: ones_64b.bin
(PID.TID 0000.0001)  MDS_WRITE_FIELD: it,rec,kS,kL,kH=       1     6   1   1   1 file=xx_atemp.effective.0000000001
(PID.TID 0000.0001)  MDS_READ_FIELD: opening global file: xx_atemp.effective.0000000001.data
(PID.TID 0000.0001)  MDS_READ_FIELD: opening global file: ones_64b.bin
(PID.TID 0000.0001)  MDS_WRITE_FIELD: it,rec,kS,kL,kH=       1     7   1   1   1 file=xx_atemp.effective.0000000001
(PID.TID 0000.0001)  MDS_READ_FIELD: opening global file: xx_atemp.effective.0000000001.data
(PID.TID 0000.0001)  MDS_READ_FIELD: opening global file: ones_64b.bin
(PID.TID 0000.0001)  MDS_WRITE_FIELD: it,rec,kS,kL,kH=       1     8   1   1   1 file=xx_atemp.effective.0000000001
(PID.TID 0000.0001)  MDS_READ_FIELD: opening global file: xx_atemp.effective.0000000001.data
(PID.TID 0000.0001)  MDS_READ_FIELD: opening global file: ones_64b.bin
(PID.TID 0000.0001)  MDS_WRITE_FIELD: it,rec,kS,kL,kH=       1     9   1   1   1 file=xx_atemp.effective.0000000001
(PID.TID 0000.0001)  MDS_READ_FIELD: opening global file: xx_atemp.effective.0000000001.data
(PID.TID 0000.0001)  MDS_READ_FIELD: opening global file: ones_64b.bin
(PID.TID 0000.0001)  MDS_WRITE_FIELD: it,rec,kS,kL,kH=       1    10   1   1   1 file=xx_atemp.effective.0000000001
(PID.TID 0000.0001)  MDS_READ_FIELD: opening global file: xx_atemp.effective.0000000001.data
(PID.TID 0000.0001)  MDS_READ_FIELD: opening global file: ones_64b.bin
(PID.TID 0000.0001)  MDS_WRITE_FIELD: it,rec,kS,kL,kH=       1    11   1   1   1 file=xx_atemp.effective.0000000001
(PID.TID 0000.0001) // =======================================================
(PID.TID 0000.0001) // Begin MONITOR dynamic field statistics
(PID.TID 0000.0001) // =======================================================
(PID.TID 0000.0001) %MON time_tsnumber                =                     0
(PID.TID 0000.0001) %MON time_secondsf                =   0.0000000000000E+00
(PID.TID 0000.0001) %MON dynstat_eta_max              =   0.0000000000000E+00
(PID.TID 0000.0001) %MON dynstat_eta_min              =   0.0000000000000E+00
(PID.TID 0000.0001) %MON dynstat_eta_mean             =   0.0000000000000E+00
(PID.TID 0000.0001) %MON dynstat_eta_sd               =   0.0000000000000E+00
(PID.TID 0000.0001) %MON dynstat_eta_del2             =   0.0000000000000E+00
(PID.TID 0000.0001) %MON dynstat_uvel_max             =   0.0000000000000E+00
(PID.TID 0000.0001) %MON dynstat_uvel_min             =   0.0000000000000E+00
(PID.TID 0000.0001) %MON dynstat_uvel_mean            =   0.0000000000000E+00
(PID.TID 0000.0001) %MON dynstat_uvel_sd              =   0.0000000000000E+00
(PID.TID 0000.0001) %MON dynstat_uvel_del2            =   0.0000000000000E+00
(PID.TID 0000.0001) %MON dynstat_vvel_max             =   0.0000000000000E+00
(PID.TID 0000.0001) %MON dynstat_vvel_min             =   0.0000000000000E+00
(PID.TID 0000.0001) %MON dynstat_vvel_mean            =   0.0000000000000E+00
(PID.TID 0000.0001) %MON dynstat_vvel_sd              =   0.0000000000000E+00
(PID.TID 0000.0001) %MON dynstat_vvel_del2            =   0.0000000000000E+00
(PID.TID 0000.0001) %MON dynstat_wvel_max             =  -0.0000000000000E+00
(PID.TID 0000.0001) %MON dynstat_wvel_min             =  -0.0000000000000E+00
(PID.TID 0000.0001) %MON dynstat_wvel_mean            =   0.0000000000000E+00
(PID.TID 0000.0001) %MON dynstat_wvel_sd              =   0.0000000000000E+00
(PID.TID 0000.0001) %MON dynstat_wvel_del2            =   0.0000000000000E+00
(PID.TID 0000.0001) %MON dynstat_theta_max            =   1.3333076477051E+01
(PID.TID 0000.0001) %MON dynstat_theta_min            =  -1.4103618860245E+00
(PID.TID 0000.0001) %MON dynstat_theta_mean           =   3.1168426975828E+00
(PID.TID 0000.0001) %MON dynstat_theta_sd             =   1.4047681849177E+00
(PID.TID 0000.0001) %MON dynstat_theta_del2           =   9.5049819722560E-03
(PID.TID 0000.0001) %MON dynstat_salt_max             =   3.5450622558594E+01
(PID.TID 0000.0001) %MON dynstat_salt_min             =   3.0128698348999E+01
(PID.TID 0000.0001) %MON dynstat_salt_mean            =   3.4759355674691E+01
(PID.TID 0000.0001) %MON dynstat_salt_sd              =   4.4306214753982E-01
(PID.TID 0000.0001) %MON dynstat_salt_del2            =   3.6452478048952E-03
(PID.TID 0000.0001) %MON dynstat_sst_max              =   1.3333076477051E+01
(PID.TID 0000.0001) %MON dynstat_sst_min              =   9.2058634757996E-01
(PID.TID 0000.0001) %MON dynstat_sst_mean             =   5.1412232105052E+00
(PID.TID 0000.0001) %MON dynstat_sst_sd               =   2.5470575662253E+00
(PID.TID 0000.0001) %MON dynstat_sst_del2             =   2.9771045505093E-02
(PID.TID 0000.0001) %MON dynstat_sss_max              =   3.4873661041260E+01
(PID.TID 0000.0001) %MON dynstat_sss_min              =   3.0128698348999E+01
(PID.TID 0000.0001) %MON dynstat_sss_mean             =   3.3155723399320E+01
(PID.TID 0000.0001) %MON dynstat_sss_sd               =   1.1868027611543E+00
(PID.TID 0000.0001) %MON dynstat_sss_del2             =   2.4068022089263E-02
(PID.TID 0000.0001) %MON forcing_qnet_max             =   0.0000000000000E+00
(PID.TID 0000.0001) %MON forcing_qnet_min             =   0.0000000000000E+00
(PID.TID 0000.0001) %MON forcing_qnet_mean            =   0.0000000000000E+00
(PID.TID 0000.0001) %MON forcing_qnet_sd              =   0.0000000000000E+00
(PID.TID 0000.0001) %MON forcing_qnet_del2            =   0.0000000000000E+00
(PID.TID 0000.0001) %MON forcing_qsw_max              =   0.0000000000000E+00
(PID.TID 0000.0001) %MON forcing_qsw_min              =   0.0000000000000E+00
(PID.TID 0000.0001) %MON forcing_qsw_mean             =   0.0000000000000E+00
(PID.TID 0000.0001) %MON forcing_qsw_sd               =   0.0000000000000E+00
(PID.TID 0000.0001) %MON forcing_qsw_del2             =   0.0000000000000E+00
(PID.TID 0000.0001) %MON forcing_empmr_max            =   0.0000000000000E+00
(PID.TID 0000.0001) %MON forcing_empmr_min            =   0.0000000000000E+00
(PID.TID 0000.0001) %MON forcing_empmr_mean           =   0.0000000000000E+00
(PID.TID 0000.0001) %MON forcing_empmr_sd             =   0.0000000000000E+00
(PID.TID 0000.0001) %MON forcing_empmr_del2           =   0.0000000000000E+00
(PID.TID 0000.0001) %MON forcing_fu_max               =   0.0000000000000E+00
(PID.TID 0000.0001) %MON forcing_fu_min               =   0.0000000000000E+00
(PID.TID 0000.0001) %MON forcing_fu_mean              =   0.0000000000000E+00
(PID.TID 0000.0001) %MON forcing_fu_sd                =   0.0000000000000E+00
(PID.TID 0000.0001) %MON forcing_fu_del2              =   0.0000000000000E+00
(PID.TID 0000.0001) %MON forcing_fv_max               =   0.0000000000000E+00
(PID.TID 0000.0001) %MON forcing_fv_min               =   0.0000000000000E+00
(PID.TID 0000.0001) %MON forcing_fv_mean              =   0.0000000000000E+00
(PID.TID 0000.0001) %MON forcing_fv_sd                =   0.0000000000000E+00
(PID.TID 0000.0001) %MON forcing_fv_del2              =   0.0000000000000E+00
(PID.TID 0000.0001) %MON trAdv_CFL_u_max              =   0.0000000000000E+00
(PID.TID 0000.0001) %MON trAdv_CFL_v_max              =   0.0000000000000E+00
(PID.TID 0000.0001) %MON trAdv_CFL_w_max              =   0.0000000000000E+00
(PID.TID 0000.0001) %MON advcfl_uvel_max              =   0.0000000000000E+00
(PID.TID 0000.0001) %MON advcfl_vvel_max              =   0.0000000000000E+00
(PID.TID 0000.0001) %MON advcfl_wvel_max              =   0.0000000000000E+00
(PID.TID 0000.0001) %MON advcfl_W_hf_max              =   0.0000000000000E+00
(PID.TID 0000.0001) %MON pe_b_mean                    =   0.0000000000000E+00
(PID.TID 0000.0001) %MON ke_max                       =   0.0000000000000E+00
(PID.TID 0000.0001) %MON ke_mean                      =   0.0000000000000E+00
(PID.TID 0000.0001) %MON ke_vol                       =   5.3036189546438E+15
(PID.TID 0000.0001) %MON vort_r_min                   =   0.0000000000000E+00
(PID.TID 0000.0001) %MON vort_r_max                   =   0.0000000000000E+00
(PID.TID 0000.0001) %MON vort_a_mean                  =   1.2067278094140E-04
(PID.TID 0000.0001) %MON vort_a_sd                    =   8.8115075987107E-06
(PID.TID 0000.0001) %MON vort_p_mean                  =   1.7734843892147E-04
(PID.TID 0000.0001) %MON vort_p_sd                    =   1.1689234854242E-04
(PID.TID 0000.0001) %MON surfExpan_theta_mean         =   0.0000000000000E+00
(PID.TID 0000.0001) %MON surfExpan_salt_mean          =   0.0000000000000E+00
(PID.TID 0000.0001) // =======================================================
(PID.TID 0000.0001) // End MONITOR dynamic field statistics
(PID.TID 0000.0001) // =======================================================
(PID.TID 0000.0001)  MDS_WRITE_FIELD: it,rec,kS,kL,kH=       0     1  23   1  23 file=U.0000000000
(PID.TID 0000.0001)  MDS_WRITE_FIELD: it,rec,kS,kL,kH=       0     1  23   1  23 file=V.0000000000
(PID.TID 0000.0001)  MDS_WRITE_FIELD: it,rec,kS,kL,kH=       0     1  23   1  23 file=T.0000000000
(PID.TID 0000.0001)  MDS_WRITE_FIELD: it,rec,kS,kL,kH=       0     1  23   1  23 file=S.0000000000
(PID.TID 0000.0001)  MDS_WRITE_FIELD: it,rec,kS,kL,kH=       0     1   1   1   1 file=Eta.0000000000
(PID.TID 0000.0001)  MDS_WRITE_FIELD: it,rec,kS,kL,kH=       0     1  23   1  23 file=W.0000000000
(PID.TID 0000.0001)  MDS_WRITE_FIELD: it,rec,kS,kL,kH=       0     1   1   1   1 file=UICE.0000000000
(PID.TID 0000.0001)  MDS_WRITE_FIELD: it,rec,kS,kL,kH=       0     1   1   1   1 file=VICE.0000000000
(PID.TID 0000.0001)  MDS_WRITE_FIELD: it,rec,kS,kL,kH=       0     1   1   1   1 file=HEFF.0000000000
(PID.TID 0000.0001)  MDS_WRITE_FIELD: it,rec,kS,kL,kH=       0     1   1   1   1 file=AREA.0000000000
(PID.TID 0000.0001)  MDS_WRITE_FIELD: it,rec,kS,kL,kH=       0     1   1   1   1 file=HSNOW.0000000000
(PID.TID 0000.0001)  MDS_WRITE_FIELD: it,rec,kS,kL,kH=       0     1   1   1   1 file=HSALT.0000000000
(PID.TID 0000.0001) // =======================================================
(PID.TID 0000.0001) // Begin MONITOR SEAICE statistics
(PID.TID 0000.0001) // =======================================================
(PID.TID 0000.0001) %MON seaice_tsnumber              =                     0
(PID.TID 0000.0001) %MON seaice_time_sec              =   0.0000000000000E+00
(PID.TID 0000.0001) %MON seaice_uice_max              =   0.0000000000000E+00
(PID.TID 0000.0001) %MON seaice_uice_min              =   0.0000000000000E+00
(PID.TID 0000.0001) %MON seaice_uice_mean             =   0.0000000000000E+00
(PID.TID 0000.0001) %MON seaice_uice_sd               =   0.0000000000000E+00
(PID.TID 0000.0001) %MON seaice_uice_del2             =   0.0000000000000E+00
(PID.TID 0000.0001) %MON seaice_vice_max              =   0.0000000000000E+00
(PID.TID 0000.0001) %MON seaice_vice_min              =   0.0000000000000E+00
(PID.TID 0000.0001) %MON seaice_vice_mean             =   0.0000000000000E+00
(PID.TID 0000.0001) %MON seaice_vice_sd               =   0.0000000000000E+00
(PID.TID 0000.0001) %MON seaice_vice_del2             =   0.0000000000000E+00
(PID.TID 0000.0001) %MON seaice_area_max              =   1.0000000000000E+00
(PID.TID 0000.0001) %MON seaice_area_min              =   1.0000000000000E+00
(PID.TID 0000.0001) %MON seaice_area_mean             =   1.0000000000000E+00
(PID.TID 0000.0001) %MON seaice_area_sd               =   0.0000000000000E+00
(PID.TID 0000.0001) %MON seaice_area_del2             =   0.0000000000000E+00
(PID.TID 0000.0001) %MON seaice_heff_max              =   1.0000000000000E+00
(PID.TID 0000.0001) %MON seaice_heff_min              =   1.0000000000000E+00
(PID.TID 0000.0001) %MON seaice_heff_mean             =   1.0000000000000E+00
(PID.TID 0000.0001) %MON seaice_heff_sd               =   0.0000000000000E+00
(PID.TID 0000.0001) %MON seaice_heff_del2             =   0.0000000000000E+00
(PID.TID 0000.0001) %MON seaice_hsnow_max             =   2.0000000000000E-01
(PID.TID 0000.0001) %MON seaice_hsnow_min             =   2.0000000000000E-01
(PID.TID 0000.0001) %MON seaice_hsnow_mean            =   2.0000000000000E-01
(PID.TID 0000.0001) %MON seaice_hsnow_sd              =   3.0531133177192E-16
(PID.TID 0000.0001) %MON seaice_hsnow_del2            =   0.0000000000000E+00
(PID.TID 0000.0001) %MON seaice_hsalt_max             =   9.5205094642639E+03
(PID.TID 0000.0001) %MON seaice_hsalt_min             =   8.2251346492767E+03
(PID.TID 0000.0001) %MON seaice_hsalt_mean            =   9.0515124880142E+03
(PID.TID 0000.0001) %MON seaice_hsalt_sd              =   3.2399715379512E+02
(PID.TID 0000.0001) %MON seaice_hsalt_del2            =   6.5705700303689E+00
(PID.TID 0000.0001) // =======================================================
(PID.TID 0000.0001) // End MONITOR SEAICE statistics
(PID.TID 0000.0001) // =======================================================
(PID.TID 0000.0001) ADWRITE: tid,vid, irec, length, prec(x2)=    39     1     1      672  8 64 fname=tapelev3_1_the_main_loop_etan
(PID.TID 0000.0001) ADWRITE:  tapeFileCounter =     1
(PID.TID 0000.0001) ADWRITE: tid,vid, irec, length, prec(x2)=    39     2     1      672  8 64 fname=tapelev3_2_the_main_loop_taux0
(PID.TID 0000.0001) ADWRITE:  tapeFileCounter =     2
(PID.TID 0000.0001) ADWRITE: tid,vid, irec, length, prec(x2)=    39     3     1      672  8 64 fname=tapelev3_3_the_main_loop_taux1
(PID.TID 0000.0001) ADWRITE:  tapeFileCounter =     3
(PID.TID 0000.0001) ADWRITE: tid,vid, irec, length, prec(x2)=    39     4     1      672  8 64 fname=tapelev3_4_the_main_loop_tauy0
(PID.TID 0000.0001) ADWRITE:  tapeFileCounter =     4
(PID.TID 0000.0001) ADWRITE: tid,vid, irec, length, prec(x2)=    39     5     1      672  8 64 fname=tapelev3_5_the_main_loop_tauy1
(PID.TID 0000.0001) ADWRITE:  tapeFileCounter =     5
(PID.TID 0000.0001) ADWRITE: tid,vid, irec, length, prec(x2)=    39     6     1      672  8 64 fname=tapelev3_6_the_main_loop_qnet0
(PID.TID 0000.0001) ADWRITE:  tapeFileCounter =     6
(PID.TID 0000.0001) ADWRITE: tid,vid, irec, length, prec(x2)=    39     7     1      672  8 64 fname=tapelev3_7_the_main_loop_qnet1
(PID.TID 0000.0001) ADWRITE:  tapeFileCounter =     7
(PID.TID 0000.0001) ADWRITE: tid,vid, irec, length, prec(x2)=    39     8     1      672  8 64 fname=tapelev3_8_the_main_loop_empmr0
(PID.TID 0000.0001) ADWRITE:  tapeFileCounter =     8
(PID.TID 0000.0001) ADWRITE: tid,vid, irec, length, prec(x2)=    39     9     1      672  8 64 fname=tapelev3_9_the_main_loop_empmr1
(PID.TID 0000.0001) ADWRITE:  tapeFileCounter =     9
(PID.TID 0000.0001) ADWRITE: tid,vid, irec, length, prec(x2)=    39    10     1      672  8 64 fname=tapelev3_10_the_main_loop_sst0
(PID.TID 0000.0001) ADWRITE:  tapeFileCounter =    10
(PID.TID 0000.0001) ADWRITE: tid,vid, irec, length, prec(x2)=    39    11     1      672  8 64 fname=tapelev3_11_the_main_loop_sst1
(PID.TID 0000.0001) ADWRITE:  tapeFileCounter =    11
(PID.TID 0000.0001) ADWRITE: tid,vid, irec, length, prec(x2)=    39    12     1      672  8 64 fname=tapelev3_12_the_main_loop_sss0
(PID.TID 0000.0001) ADWRITE:  tapeFileCounter =    12
(PID.TID 0000.0001) ADWRITE: tid,vid, irec, length, prec(x2)=    39    13     1      672  8 64 fname=tapelev3_13_the_main_loop_sss1
(PID.TID 0000.0001) ADWRITE:  tapeFileCounter =    13
(PID.TID 0000.0001) ADWRITE: tid,vid, irec, length, prec(x2)=    39    14     1      672  8 64 fname=tapelev3_14_the_main_loop_saltflux0
(PID.TID 0000.0001) ADWRITE:  tapeFileCounter =    14
(PID.TID 0000.0001) ADWRITE: tid,vid, irec, length, prec(x2)=    39    15     1      672  8 64 fname=tapelev3_15_the_main_loop_saltflux1
(PID.TID 0000.0001) ADWRITE:  tapeFileCounter =    15
(PID.TID 0000.0001) ADWRITE: tid,vid, irec, length, prec(x2)=    39    16     1      672  8 64 fname=tapelev3_16_the_main_loop_qsw0
(PID.TID 0000.0001) ADWRITE:  tapeFileCounter =    16
(PID.TID 0000.0001) ADWRITE: tid,vid, irec, length, prec(x2)=    39    17     1      672  8 64 fname=tapelev3_17_the_main_loop_qsw1
(PID.TID 0000.0001) ADWRITE:  tapeFileCounter =    17
(PID.TID 0000.0001) ADWRITE: tid,vid, irec, length, prec(x2)=    39    18     1      672  8 64 fname=tapelev3_18_the_main_loop_pload0
(PID.TID 0000.0001) ADWRITE:  tapeFileCounter =    18
(PID.TID 0000.0001) ADWRITE: tid,vid, irec, length, prec(x2)=    39    19     1      672  8 64 fname=tapelev3_19_the_main_loop_pload1
(PID.TID 0000.0001) ADWRITE:  tapeFileCounter =    19
(PID.TID 0000.0001) ADWRITE: tid,vid, irec, length, prec(x2)=    39    20     1      672  8 64 fname=tapelev3_20_the_main_loop_etah
(PID.TID 0000.0001) ADWRITE:  tapeFileCounter =    20
(PID.TID 0000.0001) ADWRITE: tid,vid, irec, length, prec(x2)=    39    21     1      672  8 64 fname=tapelev3_21_the_main_loop_detahdt
(PID.TID 0000.0001) ADWRITE:  tapeFileCounter =    21
(PID.TID 0000.0001) ADWRITE: tid,vid, irec, length, prec(x2)=    39    22     1      672  8 64 fname=tapelev3_22_the_main_loop_pmepr
(PID.TID 0000.0001) ADWRITE:  tapeFileCounter =    22
(PID.TID 0000.0001) ADWRITE: tid,vid, irec, length, prec(x2)=    39    23     1    15456  8 64 fname=tapelev3_23_the_main_loop_gtnm1
(PID.TID 0000.0001) ADWRITE:  tapeFileCounter =    23
(PID.TID 0000.0001) ADWRITE:  tapeFileCounter =    24
(PID.TID 0000.0001) ADWRITE:  tapeFileCounter =    25
(PID.TID 0000.0001) ADWRITE:  tapeFileCounter =    26
(PID.TID 0000.0001) ADWRITE:  tapeFileCounter =    27
(PID.TID 0000.0001) ADWRITE:  tapeFileCounter =    28
(PID.TID 0000.0001) ADWRITE:  tapeFileCounter =    29
(PID.TID 0000.0001) ADWRITE:  tapeFileCounter =    30
(PID.TID 0000.0001) ADWRITE:  tapeFileCounter =    31
(PID.TID 0000.0001) ADWRITE:  tapeFileCounter =    32
(PID.TID 0000.0001) ADWRITE:  tapeFileCounter =    33
(PID.TID 0000.0001) ADWRITE:  tapeFileCounter =    34
(PID.TID 0000.0001) ADWRITE:  tapeFileCounter =    35
(PID.TID 0000.0001) ADWRITE:  tapeFileCounter =    36
(PID.TID 0000.0001) ADWRITE:  tapeFileCounter =    37
(PID.TID 0000.0001) ADWRITE:  tapeFileCounter =    38
(PID.TID 0000.0001) ADWRITE:  tapeFileCounter =    39
(PID.TID 0000.0001) ADWRITE:  tapeFileCounter =    40
(PID.TID 0000.0001) ADWRITE:  tapeFileCounter =    41
(PID.TID 0000.0001) ADWRITE:  tapeFileCounter =    42
(PID.TID 0000.0001) ADWRITE:  tapeFileCounter =    43
(PID.TID 0000.0001) ADWRITE:  tapeFileCounter =    44
(PID.TID 0000.0001) ADWRITE:  tapeFileCounter =    45
(PID.TID 0000.0001) ADWRITE: tid,vid, irec, length, prec(x2)=    39    24     1    15456  8 64 fname=tapelev3_24_the_main_loop_gsnm1
(PID.TID 0000.0001) ADWRITE:  tapeFileCounter =    46
(PID.TID 0000.0001) ADWRITE:  tapeFileCounter =    47
(PID.TID 0000.0001) ADWRITE:  tapeFileCounter =    48
(PID.TID 0000.0001) ADWRITE:  tapeFileCounter =    49
(PID.TID 0000.0001) ADWRITE:  tapeFileCounter =    50
(PID.TID 0000.0001) ADWRITE:  tapeFileCounter =    51
(PID.TID 0000.0001) ADWRITE:  tapeFileCounter =    52
(PID.TID 0000.0001) ADWRITE:  tapeFileCounter =    53
(PID.TID 0000.0001) ADWRITE:  tapeFileCounter =    54
(PID.TID 0000.0001) ADWRITE:  tapeFileCounter =    55
(PID.TID 0000.0001) ADWRITE:  tapeFileCounter =    56
(PID.TID 0000.0001) ADWRITE:  tapeFileCounter =    57
(PID.TID 0000.0001) ADWRITE:  tapeFileCounter =    58
(PID.TID 0000.0001) ADWRITE:  tapeFileCounter =    59
(PID.TID 0000.0001) ADWRITE:  tapeFileCounter =    60
(PID.TID 0000.0001) ADWRITE:  tapeFileCounter =    61
(PID.TID 0000.0001) ADWRITE:  tapeFileCounter =    62
(PID.TID 0000.0001) ADWRITE:  tapeFileCounter =    63
(PID.TID 0000.0001) ADWRITE:  tapeFileCounter =    64
(PID.TID 0000.0001) ADWRITE:  tapeFileCounter =    65
(PID.TID 0000.0001) ADWRITE:  tapeFileCounter =    66
(PID.TID 0000.0001) ADWRITE:  tapeFileCounter =    67
(PID.TID 0000.0001) ADWRITE:  tapeFileCounter =    68
(PID.TID 0000.0001) ADWRITE: tid,vid, irec, length, prec(x2)=    39    25     1    15456  8 64 fname=tapelev3_25_the_main_loop_gunm1
(PID.TID 0000.0001) ADWRITE:  tapeFileCounter =    69
(PID.TID 0000.0001) ADWRITE:  tapeFileCounter =    70
(PID.TID 0000.0001) ADWRITE:  tapeFileCounter =    71
(PID.TID 0000.0001) ADWRITE:  tapeFileCounter =    72
(PID.TID 0000.0001) ADWRITE:  tapeFileCounter =    73
(PID.TID 0000.0001) ADWRITE:  tapeFileCounter =    74
(PID.TID 0000.0001) ADWRITE:  tapeFileCounter =    75
(PID.TID 0000.0001) ADWRITE:  tapeFileCounter =    76
(PID.TID 0000.0001) ADWRITE:  tapeFileCounter =    77
(PID.TID 0000.0001) ADWRITE:  tapeFileCounter =    78
(PID.TID 0000.0001) ADWRITE:  tapeFileCounter =    79
(PID.TID 0000.0001) ADWRITE:  tapeFileCounter =    80
(PID.TID 0000.0001) ADWRITE:  tapeFileCounter =    81
(PID.TID 0000.0001) ADWRITE:  tapeFileCounter =    82
(PID.TID 0000.0001) ADWRITE:  tapeFileCounter =    83
(PID.TID 0000.0001) ADWRITE:  tapeFileCounter =    84
(PID.TID 0000.0001) ADWRITE:  tapeFileCounter =    85
(PID.TID 0000.0001) ADWRITE:  tapeFileCounter =    86
(PID.TID 0000.0001) ADWRITE:  tapeFileCounter =    87
(PID.TID 0000.0001) ADWRITE:  tapeFileCounter =    88
(PID.TID 0000.0001) ADWRITE:  tapeFileCounter =    89
(PID.TID 0000.0001) ADWRITE:  tapeFileCounter =    90
(PID.TID 0000.0001) ADWRITE:  tapeFileCounter =    91
(PID.TID 0000.0001) ADWRITE: tid,vid, irec, length, prec(x2)=    39    26     1    15456  8 64 fname=tapelev3_26_the_main_loop_gvnm1
(PID.TID 0000.0001) ADWRITE:  tapeFileCounter =    92
(PID.TID 0000.0001) ADWRITE:  tapeFileCounter =    93
(PID.TID 0000.0001) ADWRITE:  tapeFileCounter =    94
(PID.TID 0000.0001) ADWRITE:  tapeFileCounter =    95
(PID.TID 0000.0001) ADWRITE:  tapeFileCounter =    96
(PID.TID 0000.0001) ADWRITE:  tapeFileCounter =    97
(PID.TID 0000.0001) ADWRITE:  tapeFileCounter =    98
(PID.TID 0000.0001) ADWRITE:  tapeFileCounter =    99
(PID.TID 0000.0001) ADWRITE:  tapeFileCounter =   100
(PID.TID 0000.0001) ADWRITE:  tapeFileCounter =   101
(PID.TID 0000.0001) ADWRITE:  tapeFileCounter =   102
(PID.TID 0000.0001) ADWRITE:  tapeFileCounter =   103
(PID.TID 0000.0001) ADWRITE:  tapeFileCounter =   104
(PID.TID 0000.0001) ADWRITE:  tapeFileCounter =   105
(PID.TID 0000.0001) ADWRITE:  tapeFileCounter =   106
(PID.TID 0000.0001) ADWRITE:  tapeFileCounter =   107
(PID.TID 0000.0001) ADWRITE:  tapeFileCounter =   108
(PID.TID 0000.0001) ADWRITE:  tapeFileCounter =   109
(PID.TID 0000.0001) ADWRITE:  tapeFileCounter =   110
(PID.TID 0000.0001) ADWRITE:  tapeFileCounter =   111
(PID.TID 0000.0001) ADWRITE:  tapeFileCounter =   112
(PID.TID 0000.0001) ADWRITE:  tapeFileCounter =   113
(PID.TID 0000.0001) ADWRITE:  tapeFileCounter =   114
(PID.TID 0000.0001) ADWRITE: tid,vid, irec, length, prec(x2)=    39    27     1    15456  8 64 fname=tapelev3_27_the_main_loop_theta
(PID.TID 0000.0001) ADWRITE:  tapeFileCounter =   115
(PID.TID 0000.0001) ADWRITE:  tapeFileCounter =   116
(PID.TID 0000.0001) ADWRITE:  tapeFileCounter =   117
(PID.TID 0000.0001) ADWRITE:  tapeFileCounter =   118
(PID.TID 0000.0001) ADWRITE:  tapeFileCounter =   119
(PID.TID 0000.0001) ADWRITE:  tapeFileCounter =   120
(PID.TID 0000.0001) ADWRITE:  tapeFileCounter =   121
(PID.TID 0000.0001) ADWRITE:  tapeFileCounter =   122
(PID.TID 0000.0001) ADWRITE:  tapeFileCounter =   123
(PID.TID 0000.0001) ADWRITE:  tapeFileCounter =   124
(PID.TID 0000.0001) ADWRITE:  tapeFileCounter =   125
(PID.TID 0000.0001) ADWRITE:  tapeFileCounter =   126
(PID.TID 0000.0001) ADWRITE:  tapeFileCounter =   127
(PID.TID 0000.0001) ADWRITE:  tapeFileCounter =   128
(PID.TID 0000.0001) ADWRITE:  tapeFileCounter =   129
(PID.TID 0000.0001) ADWRITE:  tapeFileCounter =   130
(PID.TID 0000.0001) ADWRITE:  tapeFileCounter =   131
(PID.TID 0000.0001) ADWRITE:  tapeFileCounter =   132
(PID.TID 0000.0001) ADWRITE:  tapeFileCounter =   133
(PID.TID 0000.0001) ADWRITE:  tapeFileCounter =   134
(PID.TID 0000.0001) ADWRITE:  tapeFileCounter =   135
(PID.TID 0000.0001) ADWRITE:  tapeFileCounter =   136
(PID.TID 0000.0001) ADWRITE:  tapeFileCounter =   137
(PID.TID 0000.0001) ADWRITE: tid,vid, irec, length, prec(x2)=    39    28     1    15456  8 64 fname=tapelev3_28_the_main_loop_salt
(PID.TID 0000.0001) ADWRITE:  tapeFileCounter =   138
(PID.TID 0000.0001) ADWRITE:  tapeFileCounter =   139
(PID.TID 0000.0001) ADWRITE:  tapeFileCounter =   140
(PID.TID 0000.0001) ADWRITE:  tapeFileCounter =   141
(PID.TID 0000.0001) ADWRITE:  tapeFileCounter =   142
(PID.TID 0000.0001) ADWRITE:  tapeFileCounter =   143
(PID.TID 0000.0001) ADWRITE:  tapeFileCounter =   144
(PID.TID 0000.0001) ADWRITE:  tapeFileCounter =   145
(PID.TID 0000.0001) ADWRITE:  tapeFileCounter =   146
(PID.TID 0000.0001) ADWRITE:  tapeFileCounter =   147
(PID.TID 0000.0001) ADWRITE:  tapeFileCounter =   148
(PID.TID 0000.0001) ADWRITE:  tapeFileCounter =   149
(PID.TID 0000.0001) ADWRITE:  tapeFileCounter =   150
(PID.TID 0000.0001) ADWRITE:  tapeFileCounter =   151
(PID.TID 0000.0001) ADWRITE:  tapeFileCounter =   152
(PID.TID 0000.0001) ADWRITE:  tapeFileCounter =   153
(PID.TID 0000.0001) ADWRITE:  tapeFileCounter =   154
(PID.TID 0000.0001) ADWRITE:  tapeFileCounter =   155
(PID.TID 0000.0001) ADWRITE:  tapeFileCounter =   156
(PID.TID 0000.0001) ADWRITE:  tapeFileCounter =   157
(PID.TID 0000.0001) ADWRITE:  tapeFileCounter =   158
(PID.TID 0000.0001) ADWRITE:  tapeFileCounter =   159
(PID.TID 0000.0001) ADWRITE:  tapeFileCounter =   160
(PID.TID 0000.0001) ADWRITE: tid,vid, irec, length, prec(x2)=    39    29     1    15456  8 64 fname=tapelev3_29_the_main_loop_uvel
(PID.TID 0000.0001) ADWRITE:  tapeFileCounter =   161
(PID.TID 0000.0001) ADWRITE:  tapeFileCounter =   162
(PID.TID 0000.0001) ADWRITE:  tapeFileCounter =   163
(PID.TID 0000.0001) ADWRITE:  tapeFileCounter =   164
(PID.TID 0000.0001) ADWRITE:  tapeFileCounter =   165
(PID.TID 0000.0001) ADWRITE:  tapeFileCounter =   166
(PID.TID 0000.0001) ADWRITE:  tapeFileCounter =   167
(PID.TID 0000.0001) ADWRITE:  tapeFileCounter =   168
(PID.TID 0000.0001) ADWRITE:  tapeFileCounter =   169
(PID.TID 0000.0001) ADWRITE:  tapeFileCounter =   170
(PID.TID 0000.0001) ADWRITE:  tapeFileCounter =   171
(PID.TID 0000.0001) ADWRITE:  tapeFileCounter =   172
(PID.TID 0000.0001) ADWRITE:  tapeFileCounter =   173
(PID.TID 0000.0001) ADWRITE:  tapeFileCounter =   174
(PID.TID 0000.0001) ADWRITE:  tapeFileCounter =   175
(PID.TID 0000.0001) ADWRITE:  tapeFileCounter =   176
(PID.TID 0000.0001) ADWRITE:  tapeFileCounter =   177
(PID.TID 0000.0001) ADWRITE:  tapeFileCounter =   178
(PID.TID 0000.0001) ADWRITE:  tapeFileCounter =   179
(PID.TID 0000.0001) ADWRITE:  tapeFileCounter =   180
(PID.TID 0000.0001) ADWRITE:  tapeFileCounter =   181
(PID.TID 0000.0001) ADWRITE:  tapeFileCounter =   182
(PID.TID 0000.0001) ADWRITE:  tapeFileCounter =   183
(PID.TID 0000.0001) ADWRITE: tid,vid, irec, length, prec(x2)=    39    30     1    15456  8 64 fname=tapelev3_30_the_main_loop_vvel
(PID.TID 0000.0001) ADWRITE:  tapeFileCounter =   184
(PID.TID 0000.0001) ADWRITE:  tapeFileCounter =   185
(PID.TID 0000.0001) ADWRITE:  tapeFileCounter =   186
(PID.TID 0000.0001) ADWRITE:  tapeFileCounter =   187
(PID.TID 0000.0001) ADWRITE:  tapeFileCounter =   188
(PID.TID 0000.0001) ADWRITE:  tapeFileCounter =   189
(PID.TID 0000.0001) ADWRITE:  tapeFileCounter =   190
(PID.TID 0000.0001) ADWRITE:  tapeFileCounter =   191
(PID.TID 0000.0001) ADWRITE:  tapeFileCounter =   192
(PID.TID 0000.0001) ADWRITE:  tapeFileCounter =   193
(PID.TID 0000.0001) ADWRITE:  tapeFileCounter =   194
(PID.TID 0000.0001) ADWRITE:  tapeFileCounter =   195
(PID.TID 0000.0001) ADWRITE:  tapeFileCounter =   196
(PID.TID 0000.0001) ADWRITE:  tapeFileCounter =   197
(PID.TID 0000.0001) ADWRITE:  tapeFileCounter =   198
(PID.TID 0000.0001) ADWRITE:  tapeFileCounter =   199
(PID.TID 0000.0001) ADWRITE:  tapeFileCounter =   200
(PID.TID 0000.0001) ADWRITE:  tapeFileCounter =   201
(PID.TID 0000.0001) ADWRITE:  tapeFileCounter =   202
(PID.TID 0000.0001) ADWRITE:  tapeFileCounter =   203
(PID.TID 0000.0001) ADWRITE:  tapeFileCounter =   204
(PID.TID 0000.0001) ADWRITE:  tapeFileCounter =   205
(PID.TID 0000.0001) ADWRITE:  tapeFileCounter =   206
(PID.TID 0000.0001) ADWRITE: tid,vid, irec, length, prec(x2)=    39    31     1    15456  8 64 fname=tapelev3_31_the_main_loop_wvel
(PID.TID 0000.0001) ADWRITE:  tapeFileCounter =   207
(PID.TID 0000.0001) ADWRITE:  tapeFileCounter =   208
(PID.TID 0000.0001) ADWRITE:  tapeFileCounter =   209
(PID.TID 0000.0001) ADWRITE:  tapeFileCounter =   210
(PID.TID 0000.0001) ADWRITE:  tapeFileCounter =   211
(PID.TID 0000.0001) ADWRITE:  tapeFileCounter =   212
(PID.TID 0000.0001) ADWRITE:  tapeFileCounter =   213
(PID.TID 0000.0001) ADWRITE:  tapeFileCounter =   214
(PID.TID 0000.0001) ADWRITE:  tapeFileCounter =   215
(PID.TID 0000.0001) ADWRITE:  tapeFileCounter =   216
(PID.TID 0000.0001) ADWRITE:  tapeFileCounter =   217
(PID.TID 0000.0001) ADWRITE:  tapeFileCounter =   218
(PID.TID 0000.0001) ADWRITE:  tapeFileCounter =   219
(PID.TID 0000.0001) ADWRITE:  tapeFileCounter =   220
(PID.TID 0000.0001) ADWRITE:  tapeFileCounter =   221
(PID.TID 0000.0001) ADWRITE:  tapeFileCounter =   222
(PID.TID 0000.0001) ADWRITE:  tapeFileCounter =   223
(PID.TID 0000.0001) ADWRITE:  tapeFileCounter =   224
(PID.TID 0000.0001) ADWRITE:  tapeFileCounter =   225
(PID.TID 0000.0001) ADWRITE:  tapeFileCounter =   226
(PID.TID 0000.0001) ADWRITE:  tapeFileCounter =   227
(PID.TID 0000.0001) ADWRITE:  tapeFileCounter =   228
(PID.TID 0000.0001) ADWRITE:  tapeFileCounter =   229
(PID.TID 0000.0001) ADWRITE: tid,vid, irec, length, prec(x2)=    39    32     1    15456  8 64 fname=tapelev3_32_the_main_loop_totphihyd
(PID.TID 0000.0001) ADWRITE:  tapeFileCounter =   230
(PID.TID 0000.0001) ADWRITE:  tapeFileCounter =   231
(PID.TID 0000.0001) ADWRITE:  tapeFileCounter =   232
(PID.TID 0000.0001) ADWRITE:  tapeFileCounter =   233
(PID.TID 0000.0001) ADWRITE:  tapeFileCounter =   234
(PID.TID 0000.0001) ADWRITE:  tapeFileCounter =   235
(PID.TID 0000.0001) ADWRITE:  tapeFileCounter =   236
(PID.TID 0000.0001) ADWRITE:  tapeFileCounter =   237
(PID.TID 0000.0001) ADWRITE:  tapeFileCounter =   238
(PID.TID 0000.0001) ADWRITE:  tapeFileCounter =   239
(PID.TID 0000.0001) ADWRITE:  tapeFileCounter =   240
(PID.TID 0000.0001) ADWRITE:  tapeFileCounter =   241
(PID.TID 0000.0001) ADWRITE:  tapeFileCounter =   242
(PID.TID 0000.0001) ADWRITE:  tapeFileCounter =   243
(PID.TID 0000.0001) ADWRITE:  tapeFileCounter =   244
(PID.TID 0000.0001) ADWRITE:  tapeFileCounter =   245
(PID.TID 0000.0001) ADWRITE:  tapeFileCounter =   246
(PID.TID 0000.0001) ADWRITE:  tapeFileCounter =   247
(PID.TID 0000.0001) ADWRITE:  tapeFileCounter =   248
(PID.TID 0000.0001) ADWRITE:  tapeFileCounter =   249
(PID.TID 0000.0001) ADWRITE:  tapeFileCounter =   250
(PID.TID 0000.0001) ADWRITE:  tapeFileCounter =   251
(PID.TID 0000.0001) ADWRITE:  tapeFileCounter =   252
(PID.TID 0000.0001) ADWRITE: tid,vid, irec, length, prec(x2)=    39    35     1    15456  8 64 fname=tapelev3_35_the_main_loop_uveld
(PID.TID 0000.0001) ADWRITE:  tapeFileCounter =   253
(PID.TID 0000.0001) ADWRITE:  tapeFileCounter =   254
(PID.TID 0000.0001) ADWRITE:  tapeFileCounter =   255
(PID.TID 0000.0001) ADWRITE:  tapeFileCounter =   256
(PID.TID 0000.0001) ADWRITE:  tapeFileCounter =   257
(PID.TID 0000.0001) ADWRITE:  tapeFileCounter =   258
(PID.TID 0000.0001) ADWRITE:  tapeFileCounter =   259
(PID.TID 0000.0001) ADWRITE:  tapeFileCounter =   260
(PID.TID 0000.0001) ADWRITE:  tapeFileCounter =   261
(PID.TID 0000.0001) ADWRITE:  tapeFileCounter =   262
(PID.TID 0000.0001) ADWRITE:  tapeFileCounter =   263
(PID.TID 0000.0001) ADWRITE:  tapeFileCounter =   264
(PID.TID 0000.0001) ADWRITE:  tapeFileCounter =   265
(PID.TID 0000.0001) ADWRITE:  tapeFileCounter =   266
(PID.TID 0000.0001) ADWRITE:  tapeFileCounter =   267
(PID.TID 0000.0001) ADWRITE:  tapeFileCounter =   268
(PID.TID 0000.0001) ADWRITE:  tapeFileCounter =   269
(PID.TID 0000.0001) ADWRITE:  tapeFileCounter =   270
(PID.TID 0000.0001) ADWRITE:  tapeFileCounter =   271
(PID.TID 0000.0001) ADWRITE:  tapeFileCounter =   272
(PID.TID 0000.0001) ADWRITE:  tapeFileCounter =   273
(PID.TID 0000.0001) ADWRITE:  tapeFileCounter =   274
(PID.TID 0000.0001) ADWRITE:  tapeFileCounter =   275
(PID.TID 0000.0001) ADWRITE: tid,vid, irec, length, prec(x2)=    39    36     1    15456  8 64 fname=tapelev3_36_the_main_loop_vveld
(PID.TID 0000.0001) ADWRITE:  tapeFileCounter =   276
(PID.TID 0000.0001) ADWRITE:  tapeFileCounter =   277
(PID.TID 0000.0001) ADWRITE:  tapeFileCounter =   278
(PID.TID 0000.0001) ADWRITE:  tapeFileCounter =   279
(PID.TID 0000.0001) ADWRITE:  tapeFileCounter =   280
(PID.TID 0000.0001) ADWRITE:  tapeFileCounter =   281
(PID.TID 0000.0001) ADWRITE:  tapeFileCounter =   282
(PID.TID 0000.0001) ADWRITE:  tapeFileCounter =   283
(PID.TID 0000.0001) ADWRITE:  tapeFileCounter =   284
(PID.TID 0000.0001) ADWRITE:  tapeFileCounter =   285
(PID.TID 0000.0001) ADWRITE:  tapeFileCounter =   286
(PID.TID 0000.0001) ADWRITE:  tapeFileCounter =   287
(PID.TID 0000.0001) ADWRITE:  tapeFileCounter =   288
(PID.TID 0000.0001) ADWRITE:  tapeFileCounter =   289
(PID.TID 0000.0001) ADWRITE:  tapeFileCounter =   290
(PID.TID 0000.0001) ADWRITE:  tapeFileCounter =   291
(PID.TID 0000.0001) ADWRITE:  tapeFileCounter =   292
(PID.TID 0000.0001) ADWRITE:  tapeFileCounter =   293
(PID.TID 0000.0001) ADWRITE:  tapeFileCounter =   294
(PID.TID 0000.0001) ADWRITE:  tapeFileCounter =   295
(PID.TID 0000.0001) ADWRITE:  tapeFileCounter =   296
(PID.TID 0000.0001) ADWRITE:  tapeFileCounter =   297
(PID.TID 0000.0001) ADWRITE:  tapeFileCounter =   298
(PID.TID 0000.0001) ADWRITE: tid,vid, irec, length, prec(x2)=    39    37     1      672  8 64 fname=tapelev3_37_the_main_loop_etanm1
(PID.TID 0000.0001) ADWRITE:  tapeFileCounter =   299
(PID.TID 0000.0001) ADWRITE: tid,vid, irec, length, prec(x2)=    39    38     1    15456  8 64 fname=tapelev3_38_the_main_loop_unm1
(PID.TID 0000.0001) ADWRITE:  tapeFileCounter =   300
(PID.TID 0000.0001) ADWRITE:  tapeFileCounter =   301
(PID.TID 0000.0001) ADWRITE:  tapeFileCounter =   302
(PID.TID 0000.0001) ADWRITE:  tapeFileCounter =   303
(PID.TID 0000.0001) ADWRITE:  tapeFileCounter =   304
(PID.TID 0000.0001) ADWRITE:  tapeFileCounter =   305
(PID.TID 0000.0001) ADWRITE:  tapeFileCounter =   306
(PID.TID 0000.0001) ADWRITE:  tapeFileCounter =   307
(PID.TID 0000.0001) ADWRITE:  tapeFileCounter =   308
(PID.TID 0000.0001) ADWRITE:  tapeFileCounter =   309
(PID.TID 0000.0001) ADWRITE:  tapeFileCounter =   310
(PID.TID 0000.0001) ADWRITE:  tapeFileCounter =   311
(PID.TID 0000.0001) ADWRITE:  tapeFileCounter =   312
(PID.TID 0000.0001) ADWRITE:  tapeFileCounter =   313
(PID.TID 0000.0001) ADWRITE:  tapeFileCounter =   314
(PID.TID 0000.0001) ADWRITE:  tapeFileCounter =   315
(PID.TID 0000.0001) ADWRITE:  tapeFileCounter =   316
(PID.TID 0000.0001) ADWRITE:  tapeFileCounter =   317
(PID.TID 0000.0001) ADWRITE:  tapeFileCounter =   318
(PID.TID 0000.0001) ADWRITE:  tapeFileCounter =   319
(PID.TID 0000.0001) ADWRITE:  tapeFileCounter =   320
(PID.TID 0000.0001) ADWRITE:  tapeFileCounter =   321
(PID.TID 0000.0001) ADWRITE:  tapeFileCounter =   322
(PID.TID 0000.0001) ADWRITE: tid,vid, irec, length, prec(x2)=    39    39     1    15456  8 64 fname=tapelev3_39_the_main_loop_vnm1
(PID.TID 0000.0001) ADWRITE:  tapeFileCounter =   323
(PID.TID 0000.0001) ADWRITE:  tapeFileCounter =   324
(PID.TID 0000.0001) ADWRITE:  tapeFileCounter =   325
(PID.TID 0000.0001) ADWRITE:  tapeFileCounter =   326
(PID.TID 0000.0001) ADWRITE:  tapeFileCounter =   327
(PID.TID 0000.0001) ADWRITE:  tapeFileCounter =   328
(PID.TID 0000.0001) ADWRITE:  tapeFileCounter =   329
(PID.TID 0000.0001) ADWRITE:  tapeFileCounter =   330
(PID.TID 0000.0001) ADWRITE:  tapeFileCounter =   331
(PID.TID 0000.0001) ADWRITE:  tapeFileCounter =   332
(PID.TID 0000.0001) ADWRITE:  tapeFileCounter =   333
(PID.TID 0000.0001) ADWRITE:  tapeFileCounter =   334
(PID.TID 0000.0001) ADWRITE:  tapeFileCounter =   335
(PID.TID 0000.0001) ADWRITE:  tapeFileCounter =   336
(PID.TID 0000.0001) ADWRITE:  tapeFileCounter =   337
(PID.TID 0000.0001) ADWRITE:  tapeFileCounter =   338
(PID.TID 0000.0001) ADWRITE:  tapeFileCounter =   339
(PID.TID 0000.0001) ADWRITE:  tapeFileCounter =   340
(PID.TID 0000.0001) ADWRITE:  tapeFileCounter =   341
(PID.TID 0000.0001) ADWRITE:  tapeFileCounter =   342
(PID.TID 0000.0001) ADWRITE:  tapeFileCounter =   343
(PID.TID 0000.0001) ADWRITE:  tapeFileCounter =   344
(PID.TID 0000.0001) ADWRITE:  tapeFileCounter =   345
(PID.TID 0000.0001) ADWRITE: tid,vid, irec, length, prec(x2)=    39    40     1      672  8 64 fname=tapelev3_40_the_main_loop_areamask0
(PID.TID 0000.0001) ADWRITE:  tapeFileCounter =   346
(PID.TID 0000.0001) ADWRITE: tid,vid, irec, length, prec(x2)=    39    41     1      672  8 64 fname=tapelev3_41_the_main_loop_areamask1
(PID.TID 0000.0001) ADWRITE:  tapeFileCounter =   347
(PID.TID 0000.0001) ADWRITE: tid,vid, irec, length, prec(x2)=    39    42     1      672  8 64 fname=tapelev3_42_the_main_loop_hflux0
(PID.TID 0000.0001) ADWRITE:  tapeFileCounter =   348
(PID.TID 0000.0001) ADWRITE: tid,vid, irec, length, prec(x2)=    39    43     1      672  8 64 fname=tapelev3_43_the_main_loop_hflux1
(PID.TID 0000.0001) ADWRITE:  tapeFileCounter =   349
(PID.TID 0000.0001) ADWRITE: tid,vid, irec, length, prec(x2)=    39    44     1      672  8 64 fname=tapelev3_44_the_main_loop_sflux0
(PID.TID 0000.0001) ADWRITE:  tapeFileCounter =   350
(PID.TID 0000.0001) ADWRITE: tid,vid, irec, length, prec(x2)=    39    45     1      672  8 64 fname=tapelev3_45_the_main_loop_sflux1
(PID.TID 0000.0001) ADWRITE:  tapeFileCounter =   351
(PID.TID 0000.0001) ADWRITE: tid,vid, irec, length, prec(x2)=    39    46     1      672  8 64 fname=tapelev3_46_the_main_loop_ustress0
(PID.TID 0000.0001) ADWRITE:  tapeFileCounter =   352
(PID.TID 0000.0001) ADWRITE: tid,vid, irec, length, prec(x2)=    39    47     1      672  8 64 fname=tapelev3_47_the_main_loop_ustress1
(PID.TID 0000.0001) ADWRITE:  tapeFileCounter =   353
(PID.TID 0000.0001) ADWRITE: tid,vid, irec, length, prec(x2)=    39    48     1      672  8 64 fname=tapelev3_48_the_main_loop_vstress0
(PID.TID 0000.0001) ADWRITE:  tapeFileCounter =   354
(PID.TID 0000.0001) ADWRITE: tid,vid, irec, length, prec(x2)=    39    49     1      672  8 64 fname=tapelev3_49_the_main_loop_vstress1
(PID.TID 0000.0001) ADWRITE:  tapeFileCounter =   355
(PID.TID 0000.0001) ADWRITE: tid,vid, irec, length, prec(x2)=    39    50     1      672  8 64 fname=tapelev3_50_the_main_loop_wspeed0
(PID.TID 0000.0001) ADWRITE:  tapeFileCounter =   356
(PID.TID 0000.0001) ADWRITE: tid,vid, irec, length, prec(x2)=    39    51     1      672  8 64 fname=tapelev3_51_the_main_loop_wspeed1
(PID.TID 0000.0001) ADWRITE:  tapeFileCounter =   357
(PID.TID 0000.0001) ADWRITE: tid,vid, irec, length, prec(x2)=    39    54     1      672  8 64 fname=tapelev3_54_the_main_loop_runoff0
(PID.TID 0000.0001) ADWRITE:  tapeFileCounter =   358
(PID.TID 0000.0001) ADWRITE: tid,vid, irec, length, prec(x2)=    39    55     1      672  8 64 fname=tapelev3_55_the_main_loop_runoff1
(PID.TID 0000.0001) ADWRITE:  tapeFileCounter =   359
(PID.TID 0000.0001) ADWRITE: tid,vid, irec, length, prec(x2)=    39    56     1      672  8 64 fname=tapelev3_56_the_main_loop_apressure0
(PID.TID 0000.0001) ADWRITE:  tapeFileCounter =   360
(PID.TID 0000.0001) ADWRITE: tid,vid, irec, length, prec(x2)=    39    57     1      672  8 64 fname=tapelev3_57_the_main_loop_apressure1
(PID.TID 0000.0001) ADWRITE:  tapeFileCounter =   361
(PID.TID 0000.0001) ADWRITE: tid,vid, irec, length, prec(x2)=    39    58     1      672  8 64 fname=tapelev3_58_the_main_loop_siceload
(PID.TID 0000.0001) ADWRITE:  tapeFileCounter =   362
(PID.TID 0000.0001) ADWRITE: tid,vid, irec, length, prec(x2)=    39    59     1      672  8 64 fname=tapelev3_59_the_main_loop_climsss0
(PID.TID 0000.0001) ADWRITE:  tapeFileCounter =   363
(PID.TID 0000.0001) ADWRITE: tid,vid, irec, length, prec(x2)=    39    60     1      672  8 64 fname=tapelev3_60_the_main_loop_climsss1
(PID.TID 0000.0001) ADWRITE:  tapeFileCounter =   364
(PID.TID 0000.0001) ADWRITE: tid,vid, irec, length, prec(x2)=    39    61     1      672  8 64 fname=tapelev3_61_the_main_loop_climsst0
(PID.TID 0000.0001) ADWRITE:  tapeFileCounter =   365
(PID.TID 0000.0001) ADWRITE: tid,vid, irec, length, prec(x2)=    39    62     1      672  8 64 fname=tapelev3_62_the_main_loop_climsst1
(PID.TID 0000.0001) ADWRITE:  tapeFileCounter =   366
(PID.TID 0000.0001) ADWRITE: tid,vid, irec, length, prec(x2)=    39    63     1      672  8 64 fname=tapelev3_63_the_main_loop_saltflx0
(PID.TID 0000.0001) ADWRITE:  tapeFileCounter =   367
(PID.TID 0000.0001) ADWRITE: tid,vid, irec, length, prec(x2)=    39    64     1      672  8 64 fname=tapelev3_64_the_main_loop_saltflx1
(PID.TID 0000.0001) ADWRITE:  tapeFileCounter =   368
(PID.TID 0000.0001) ADWRITE: tid,vid, irec, length, prec(x2)=    39    65     1      672  8 64 fname=tapelev3_65_the_main_loop_aqh0
(PID.TID 0000.0001) ADWRITE:  tapeFileCounter =   369
(PID.TID 0000.0001) ADWRITE: tid,vid, irec, length, prec(x2)=    39    66     1      672  8 64 fname=tapelev3_66_the_main_loop_aqh1
(PID.TID 0000.0001) ADWRITE:  tapeFileCounter =   370
(PID.TID 0000.0001) ADWRITE: tid,vid, irec, length, prec(x2)=    39    67     1      672  8 64 fname=tapelev3_67_the_main_loop_atemp0
(PID.TID 0000.0001) ADWRITE:  tapeFileCounter =   371
(PID.TID 0000.0001) ADWRITE: tid,vid, irec, length, prec(x2)=    39    68     1      672  8 64 fname=tapelev3_68_the_main_loop_atemp1
(PID.TID 0000.0001) ADWRITE:  tapeFileCounter =   372
(PID.TID 0000.0001) ADWRITE: tid,vid, irec, length, prec(x2)=    39    69     1      672  8 64 fname=tapelev3_69_the_main_loop_precip0
(PID.TID 0000.0001) ADWRITE:  tapeFileCounter =   373
(PID.TID 0000.0001) ADWRITE: tid,vid, irec, length, prec(x2)=    39    70     1      672  8 64 fname=tapelev3_70_the_main_loop_precip1
(PID.TID 0000.0001) ADWRITE:  tapeFileCounter =   374
(PID.TID 0000.0001) ADWRITE: tid,vid, irec, length, prec(x2)=    39    73     1      672  8 64 fname=tapelev3_73_the_main_loop_snowprecip0
(PID.TID 0000.0001) ADWRITE:  tapeFileCounter =   375
(PID.TID 0000.0001) ADWRITE: tid,vid, irec, length, prec(x2)=    39    74     1      672  8 64 fname=tapelev3_74_the_main_loop_snowprecip1
(PID.TID 0000.0001) ADWRITE:  tapeFileCounter =   376
(PID.TID 0000.0001) ADWRITE: tid,vid, irec, length, prec(x2)=    39    75     1      672  8 64 fname=tapelev3_75_the_main_loop_swdown0
(PID.TID 0000.0001) ADWRITE:  tapeFileCounter =   377
(PID.TID 0000.0001) ADWRITE: tid,vid, irec, length, prec(x2)=    39    76     1      672  8 64 fname=tapelev3_76_the_main_loop_swdown1
(PID.TID 0000.0001) ADWRITE:  tapeFileCounter =   378
(PID.TID 0000.0001) ADWRITE: tid,vid, irec, length, prec(x2)=    39    77     1      672  8 64 fname=tapelev3_77_the_main_loop_lwdown0
(PID.TID 0000.0001) ADWRITE:  tapeFileCounter =   379
(PID.TID 0000.0001) ADWRITE: tid,vid, irec, length, prec(x2)=    39    78     1      672  8 64 fname=tapelev3_78_the_main_loop_lwdown1
(PID.TID 0000.0001) ADWRITE:  tapeFileCounter =   380
(PID.TID 0000.0001) ADWRITE: tid,vid, irec, length, prec(x2)=    39    79     1      672  8 64 fname=tapelev3_79_the_main_loop_uwind0
(PID.TID 0000.0001) ADWRITE:  tapeFileCounter =   381
(PID.TID 0000.0001) ADWRITE: tid,vid, irec, length, prec(x2)=    39    80     1      672  8 64 fname=tapelev3_80_the_main_loop_uwind1
(PID.TID 0000.0001) ADWRITE:  tapeFileCounter =   382
(PID.TID 0000.0001) ADWRITE: tid,vid, irec, length, prec(x2)=    39    81     1      672  8 64 fname=tapelev3_81_the_main_loop_vwind0
(PID.TID 0000.0001) ADWRITE:  tapeFileCounter =   383
(PID.TID 0000.0001) ADWRITE: tid,vid, irec, length, prec(x2)=    39    82     1      672  8 64 fname=tapelev3_82_the_main_loop_vwind1
(PID.TID 0000.0001) ADWRITE:  tapeFileCounter =   384
(PID.TID 0000.0001) ADWRITE: tid,vid, irec, length, prec(x2)=    39    83     1     6048  8 64 fname=tapelev3_83_the_main_loop_xx_gentim2d
(PID.TID 0000.0001) ADWRITE:  tapeFileCounter =   385
(PID.TID 0000.0001) ADWRITE:  tapeFileCounter =   386
(PID.TID 0000.0001) ADWRITE:  tapeFileCounter =   387
(PID.TID 0000.0001) ADWRITE:  tapeFileCounter =   388
(PID.TID 0000.0001) ADWRITE:  tapeFileCounter =   389
(PID.TID 0000.0001) ADWRITE:  tapeFileCounter =   390
(PID.TID 0000.0001) ADWRITE:  tapeFileCounter =   391
(PID.TID 0000.0001) ADWRITE:  tapeFileCounter =   392
(PID.TID 0000.0001) ADWRITE:  tapeFileCounter =   393
(PID.TID 0000.0001) ADWRITE: tid,vid, irec, length, prec(x2)=    39    84     1     6048  8 64 fname=tapelev3_84_the_main_loop_xx_gentim2d0
(PID.TID 0000.0001) ADWRITE:  tapeFileCounter =   394
(PID.TID 0000.0001) ADWRITE:  tapeFileCounter =   395
(PID.TID 0000.0001) ADWRITE:  tapeFileCounter =   396
(PID.TID 0000.0001) ADWRITE:  tapeFileCounter =   397
(PID.TID 0000.0001) ADWRITE:  tapeFileCounter =   398
(PID.TID 0000.0001) ADWRITE:  tapeFileCounter =   399
(PID.TID 0000.0001) ADWRITE:  tapeFileCounter =   400
(PID.TID 0000.0001) ADWRITE:  tapeFileCounter =   401
(PID.TID 0000.0001) ADWRITE:  tapeFileCounter =   402
(PID.TID 0000.0001) ADWRITE: tid,vid, irec, length, prec(x2)=    39    85     1     6048  8 64 fname=tapelev3_85_the_main_loop_xx_gentim2d1
(PID.TID 0000.0001) ADWRITE:  tapeFileCounter =   403
(PID.TID 0000.0001) ADWRITE:  tapeFileCounter =   404
(PID.TID 0000.0001) ADWRITE:  tapeFileCounter =   405
(PID.TID 0000.0001) ADWRITE:  tapeFileCounter =   406
(PID.TID 0000.0001) ADWRITE:  tapeFileCounter =   407
(PID.TID 0000.0001) ADWRITE:  tapeFileCounter =   408
(PID.TID 0000.0001) ADWRITE:  tapeFileCounter =   409
(PID.TID 0000.0001) ADWRITE:  tapeFileCounter =   410
(PID.TID 0000.0001) ADWRITE:  tapeFileCounter =   411
(PID.TID 0000.0001) ADWRITE: tid,vid, irec, length, prec(x2)=    39    87     1      672  8 64 fname=tapelev3_87_the_main_loop_phihydlow
(PID.TID 0000.0001) ADWRITE:  tapeFileCounter =   412
(PID.TID 0000.0001) ADWRITE: tid,vid, irec, length, prec(x2)=    39    88     1      672  8 64 fname=tapelev3_88_the_main_loop_area
(PID.TID 0000.0001) ADWRITE:  tapeFileCounter =   413
(PID.TID 0000.0001) ADWRITE: tid,vid, irec, length, prec(x2)=    39    89     1      672  8 64 fname=tapelev3_89_the_main_loop_heff
(PID.TID 0000.0001) ADWRITE:  tapeFileCounter =   414
(PID.TID 0000.0001) ADWRITE: tid,vid, irec, length, prec(x2)=    39    90     1      672  8 64 fname=tapelev3_90_the_main_loop_hsnow
(PID.TID 0000.0001) ADWRITE:  tapeFileCounter =   415
(PID.TID 0000.0001) ADWRITE: tid,vid, irec, length, prec(x2)=    39    92     1      672  8 64 fname=tapelev3_92_the_main_loop_uice
(PID.TID 0000.0001) ADWRITE:  tapeFileCounter =   416
(PID.TID 0000.0001) ADWRITE: tid,vid, irec, length, prec(x2)=    39    93     1      672  8 64 fname=tapelev3_93_the_main_loop_vice
(PID.TID 0000.0001) ADWRITE:  tapeFileCounter =   417
(PID.TID 0000.0001) ADWRITE: tid,vid, irec, length, prec(x2)=    39    96     1     4704  8 64 fname=tapelev3_96_the_main_loop_tices
(PID.TID 0000.0001) ADWRITE:  tapeFileCounter =   418
(PID.TID 0000.0001) ADWRITE:  tapeFileCounter =   419
(PID.TID 0000.0001) ADWRITE:  tapeFileCounter =   420
(PID.TID 0000.0001) ADWRITE:  tapeFileCounter =   421
(PID.TID 0000.0001) ADWRITE:  tapeFileCounter =   422
(PID.TID 0000.0001) ADWRITE:  tapeFileCounter =   423
(PID.TID 0000.0001) ADWRITE:  tapeFileCounter =   424
(PID.TID 0000.0001) ADWRITE: tid,vid, irec, length, prec(x2)=    39    97     1      672  8 64 fname=tapelev3_97_the_main_loop_dwatn
(PID.TID 0000.0001) ADWRITE:  tapeFileCounter =   425
(PID.TID 0000.0001) ADWRITE: tid,vid, irec, length, prec(x2)=    39    98     1      672  8 64 fname=tapelev3_98_the_main_loop_stressdivergencex
(PID.TID 0000.0001) ADWRITE:  tapeFileCounter =   426
(PID.TID 0000.0001) ADWRITE: tid,vid, irec, length, prec(x2)=    39    99     1      672  8 64 fname=tapelev3_99_the_main_loop_stressdivergencey
(PID.TID 0000.0001) ADWRITE:  tapeFileCounter =   427
(PID.TID 0000.0001) ADWRITE: tid,vid, irec, length, prec(x2)=    39   100     1      672  8 64 fname=tapelev3_100_the_main_loop_seaice_sigma1
(PID.TID 0000.0001) ADWRITE:  tapeFileCounter =   428
(PID.TID 0000.0001) ADWRITE: tid,vid, irec, length, prec(x2)=    39   101     1      672  8 64 fname=tapelev3_101_the_main_loop_seaice_sigma2
(PID.TID 0000.0001) ADWRITE:  tapeFileCounter =   429
(PID.TID 0000.0001) ADWRITE: tid,vid, irec, length, prec(x2)=    39   102     1      672  8 64 fname=tapelev3_102_the_main_loop_seaice_sigma12
(PID.TID 0000.0001) ADWRITE:  tapeFileCounter =   430
(PID.TID 0000.0001) ADWRITE: tid,vid, irec, length, prec(x2)=    39   103     1      672  8 64 fname=tapelev3_103_the_main_loop_hsalt
(PID.TID 0000.0001) ADWRITE:  tapeFileCounter =   431
(PID.TID 0000.0001) whio : write lev 3 rec   1
(PID.TID 0000.0001)  MDS_WRITE_FIELD: it,rec,kS,kL,kH=       1     1   1   1   1 file=m_sst_step.0000000001
(PID.TID 0000.0001)  MDS_READ_FIELD: opening global file: xx_atemp.effective.0000000001.data
(PID.TID 0000.0001)  MDS_READ_FIELD: opening global file: xx_atemp.effective.0000000001.data
(PID.TID 0000.0001) EXF_SET_FLD: processing field "climsss",  file: SSS_monthly.labsea1979
(PID.TID 0000.0001) EXF_SET_FLD:   myIter, count0, count1:         0      1      2
(PID.TID 0000.0001) EXF_SET_FLD:   first, changed, fac:   T   F    0.50000000000000000
(PID.TID 0000.0001) EXF_SET_FLD: field "climsss", it=         0, loading rec=     1
(PID.TID 0000.0001) EXF_SET_FLD:   from file: "SSS_monthly.labsea1979"
(PID.TID 0000.0001)  MDS_READ_FIELD: opening global file: SSS_monthly.labsea1979
(PID.TID 0000.0001) EXF_SET_FLD: field "climsss", it=         0, loading rec=     2
(PID.TID 0000.0001) EXF_SET_FLD:   from file: "SSS_monthly.labsea1979"
(PID.TID 0000.0001)  MDS_READ_FIELD: opening global file: SSS_monthly.labsea1979
(PID.TID 0000.0001) EXF_SET_FLD: processing field "uwind",  file: u10m.labsea1979
(PID.TID 0000.0001) EXF_SET_FLD:   myIter, count0, count1:         0      1      2
(PID.TID 0000.0001) EXF_SET_FLD:   first, changed, fac:   T   F    0.50000000000000000
(PID.TID 0000.0001) EXF_SET_FLD: field "uwind", it=         0, loading rec=     1
(PID.TID 0000.0001) EXF_SET_FLD:   from file: "u10m.labsea1979"
(PID.TID 0000.0001)  MDS_READ_FIELD: opening global file: u10m.labsea1979
(PID.TID 0000.0001) EXF_SET_FLD: field "uwind", it=         0, loading rec=     2
(PID.TID 0000.0001) EXF_SET_FLD:   from file: "u10m.labsea1979"
(PID.TID 0000.0001)  MDS_READ_FIELD: opening global file: u10m.labsea1979
(PID.TID 0000.0001) EXF_SET_FLD: processing field "vwind",  file: v10m.labsea1979
(PID.TID 0000.0001) EXF_SET_FLD:   myIter, count0, count1:         0      1      2
(PID.TID 0000.0001) EXF_SET_FLD:   first, changed, fac:   T   F    0.50000000000000000
(PID.TID 0000.0001) EXF_SET_FLD: field "vwind", it=         0, loading rec=     1
(PID.TID 0000.0001) EXF_SET_FLD:   from file: "v10m.labsea1979"
(PID.TID 0000.0001)  MDS_READ_FIELD: opening global file: v10m.labsea1979
(PID.TID 0000.0001) EXF_SET_FLD: field "vwind", it=         0, loading rec=     2
(PID.TID 0000.0001) EXF_SET_FLD:   from file: "v10m.labsea1979"
(PID.TID 0000.0001)  MDS_READ_FIELD: opening global file: v10m.labsea1979
(PID.TID 0000.0001) EXF_SET_FLD: processing field "atemp",  file: tair.labsea1979
(PID.TID 0000.0001) EXF_SET_FLD:   myIter, count0, count1:         0      1      2
(PID.TID 0000.0001) EXF_SET_FLD:   first, changed, fac:   T   F    0.50000000000000000
(PID.TID 0000.0001) EXF_SET_FLD: field "atemp", it=         0, loading rec=     1
(PID.TID 0000.0001) EXF_SET_FLD:   from file: "tair.labsea1979"
(PID.TID 0000.0001)  MDS_READ_FIELD: opening global file: tair.labsea1979
(PID.TID 0000.0001) EXF_SET_FLD: field "atemp", it=         0, loading rec=     2
(PID.TID 0000.0001) EXF_SET_FLD:   from file: "tair.labsea1979"
(PID.TID 0000.0001)  MDS_READ_FIELD: opening global file: tair.labsea1979
(PID.TID 0000.0001) EXF_SET_FLD: processing field "aqh",  file: qa.labsea1979
(PID.TID 0000.0001) EXF_SET_FLD:   myIter, count0, count1:         0      1      2
(PID.TID 0000.0001) EXF_SET_FLD:   first, changed, fac:   T   F    0.50000000000000000
(PID.TID 0000.0001) EXF_SET_FLD: field "aqh", it=         0, loading rec=     1
(PID.TID 0000.0001) EXF_SET_FLD:   from file: "qa.labsea1979"
(PID.TID 0000.0001)  MDS_READ_FIELD: opening global file: qa.labsea1979
(PID.TID 0000.0001) EXF_SET_FLD: field "aqh", it=         0, loading rec=     2
(PID.TID 0000.0001) EXF_SET_FLD:   from file: "qa.labsea1979"
(PID.TID 0000.0001)  MDS_READ_FIELD: opening global file: qa.labsea1979
(PID.TID 0000.0001) EXF_SET_FLD: processing field "precip",  file: prate.labsea1979
(PID.TID 0000.0001) EXF_SET_FLD:   myIter, count0, count1:         0      1      2
(PID.TID 0000.0001) EXF_SET_FLD:   first, changed, fac:   T   F    0.50000000000000000
(PID.TID 0000.0001) EXF_SET_FLD: field "precip", it=         0, loading rec=     1
(PID.TID 0000.0001) EXF_SET_FLD:   from file: "prate.labsea1979"
(PID.TID 0000.0001)  MDS_READ_FIELD: opening global file: prate.labsea1979
(PID.TID 0000.0001) EXF_SET_FLD: field "precip", it=         0, loading rec=     2
(PID.TID 0000.0001) EXF_SET_FLD:   from file: "prate.labsea1979"
(PID.TID 0000.0001)  MDS_READ_FIELD: opening global file: prate.labsea1979
(PID.TID 0000.0001) EXF_SET_FLD: processing field "swdown",  file: fsh.labsea1979
(PID.TID 0000.0001) EXF_SET_FLD:   myIter, count0, count1:         0      1      2
(PID.TID 0000.0001) EXF_SET_FLD:   first, changed, fac:   T   F    0.50000000000000000
(PID.TID 0000.0001) EXF_SET_FLD: field "swdown", it=         0, loading rec=     1
(PID.TID 0000.0001) EXF_SET_FLD:   from file: "fsh.labsea1979"
(PID.TID 0000.0001)  MDS_READ_FIELD: opening global file: fsh.labsea1979
(PID.TID 0000.0001) EXF_SET_FLD: field "swdown", it=         0, loading rec=     2
(PID.TID 0000.0001) EXF_SET_FLD:   from file: "fsh.labsea1979"
(PID.TID 0000.0001)  MDS_READ_FIELD: opening global file: fsh.labsea1979
(PID.TID 0000.0001) EXF_SET_FLD: processing field "lwdown",  file: flo.labsea1979
(PID.TID 0000.0001) EXF_SET_FLD:   myIter, count0, count1:         0      1      2
(PID.TID 0000.0001) EXF_SET_FLD:   first, changed, fac:   T   F    0.50000000000000000
(PID.TID 0000.0001) EXF_SET_FLD: field "lwdown", it=         0, loading rec=     1
(PID.TID 0000.0001) EXF_SET_FLD:   from file: "flo.labsea1979"
(PID.TID 0000.0001)  MDS_READ_FIELD: opening global file: flo.labsea1979
(PID.TID 0000.0001) EXF_SET_FLD: field "lwdown", it=         0, loading rec=     2
(PID.TID 0000.0001) EXF_SET_FLD:   from file: "flo.labsea1979"
(PID.TID 0000.0001)  MDS_READ_FIELD: opening global file: flo.labsea1979
(PID.TID 0000.0001) // =======================================================
(PID.TID 0000.0001) // Begin MONITOR EXF statistics
(PID.TID 0000.0001) // =======================================================
(PID.TID 0000.0001) %MON exf_tsnumber                 =                     0
(PID.TID 0000.0001) %MON exf_time_sec                 =   0.0000000000000E+00
(PID.TID 0000.0001) %MON exf_ustress_max              =   6.3818003035776E-02
(PID.TID 0000.0001) %MON exf_ustress_min              =  -9.5274626419036E-02
(PID.TID 0000.0001) %MON exf_ustress_mean             =   2.2557103497951E-02
(PID.TID 0000.0001) %MON exf_ustress_sd               =   2.7247603192260E-02
(PID.TID 0000.0001) %MON exf_ustress_del2             =   7.3758800450893E-04
(PID.TID 0000.0001) %MON exf_vstress_max              =   5.4680578470262E-02
(PID.TID 0000.0001) %MON exf_vstress_min              =  -6.2445365067698E-02
(PID.TID 0000.0001) %MON exf_vstress_mean             =  -5.5933931618601E-03
(PID.TID 0000.0001) %MON exf_vstress_sd               =   1.5552685527404E-02
(PID.TID 0000.0001) %MON exf_vstress_del2             =   5.2416029650727E-04
(PID.TID 0000.0001) %MON exf_hflux_max                =   7.3342894863093E+02
(PID.TID 0000.0001) %MON exf_hflux_min                =   1.1702183490135E+02
(PID.TID 0000.0001) %MON exf_hflux_mean               =   2.8227401474151E+02
(PID.TID 0000.0001) %MON exf_hflux_sd                 =   1.5734473660669E+02
(PID.TID 0000.0001) %MON exf_hflux_del2               =   6.4480419727626E+00
(PID.TID 0000.0001) %MON exf_sflux_max                =   5.5067008808914E-08
(PID.TID 0000.0001) %MON exf_sflux_min                =  -6.0835291829596E-08
(PID.TID 0000.0001) %MON exf_sflux_mean               =  -6.5486779892556E-09
(PID.TID 0000.0001) %MON exf_sflux_sd                 =   2.6755790502587E-08
(PID.TID 0000.0001) %MON exf_sflux_del2               =   1.1207717779612E-09
(PID.TID 0000.0001) %MON exf_uwind_max                =   6.4643745422363E+00
(PID.TID 0000.0001) %MON exf_uwind_min                =  -6.8372380733490E+00
(PID.TID 0000.0001) %MON exf_uwind_mean               =   2.7697727336031E+00
(PID.TID 0000.0001) %MON exf_uwind_sd                 =   2.9900402496951E+00
(PID.TID 0000.0001) %MON exf_uwind_del2               =   8.0272940759904E-02
(PID.TID 0000.0001) %MON exf_vwind_max                =   3.9240682125092E+00
(PID.TID 0000.0001) %MON exf_vwind_min                =  -6.0197033882141E+00
(PID.TID 0000.0001) %MON exf_vwind_mean               =  -7.6089868124963E-01
(PID.TID 0000.0001) %MON exf_vwind_sd                 =   1.7293437592941E+00
(PID.TID 0000.0001) %MON exf_vwind_del2               =   4.8615035832713E-02
(PID.TID 0000.0001) %MON exf_wspeed_max               =   7.8832820454477E+00
(PID.TID 0000.0001) %MON exf_wspeed_min               =   4.6035219539401E-01
(PID.TID 0000.0001) %MON exf_wspeed_mean              =   4.1981217095273E+00
(PID.TID 0000.0001) %MON exf_wspeed_sd                =   1.5991724245810E+00
(PID.TID 0000.0001) %MON exf_wspeed_del2              =   1.3305819436104E-01
(PID.TID 0000.0001) %MON exf_atemp_max                =   2.8198281250000E+02
(PID.TID 0000.0001) %MON exf_atemp_min                =   2.3656176910400E+02
(PID.TID 0000.0001) %MON exf_atemp_mean               =   2.6404605784141E+02
(PID.TID 0000.0001) %MON exf_atemp_sd                 =   1.1983417694612E+01
(PID.TID 0000.0001) %MON exf_atemp_del2               =   1.6498618078322E-01
(PID.TID 0000.0001) %MON exf_aqh_max                  =   6.3231729436666E-03
(PID.TID 0000.0001) %MON exf_aqh_min                  =   1.6369274817407E-04
(PID.TID 0000.0001) %MON exf_aqh_mean                 =   2.4803629101886E-03
(PID.TID 0000.0001) %MON exf_aqh_sd                   =   1.4265074770275E-03
(PID.TID 0000.0001) %MON exf_aqh_del2                 =   1.7546823157582E-05
(PID.TID 0000.0001) %MON exf_lwflux_max               =   2.0326754555358E+02
(PID.TID 0000.0001) %MON exf_lwflux_min               =   7.1683500197106E+01
(PID.TID 0000.0001) %MON exf_lwflux_mean              =   1.1087529350502E+02
(PID.TID 0000.0001) %MON exf_lwflux_sd                =   3.5154607039034E+01
(PID.TID 0000.0001) %MON exf_lwflux_del2              =   8.8266641018045E-01
(PID.TID 0000.0001) %MON exf_evap_max                 =   6.1391216633007E-08
(PID.TID 0000.0001) %MON exf_evap_min                 =   1.0988907907034E-08
(PID.TID 0000.0001) %MON exf_evap_mean                =   2.9841402553829E-08
(PID.TID 0000.0001) %MON exf_evap_sd                  =   9.5469040357951E-09
(PID.TID 0000.0001) %MON exf_evap_del2                =   6.7676344851287E-10
(PID.TID 0000.0001) %MON exf_precip_max               =   1.0498766300771E-07
(PID.TID 0000.0001) %MON exf_precip_min               =   2.7359498694368E-10
(PID.TID 0000.0001) %MON exf_precip_mean              =   3.6390080543085E-08
(PID.TID 0000.0001) %MON exf_precip_sd                =   2.0578148171209E-08
(PID.TID 0000.0001) %MON exf_precip_del2              =   8.0974685183319E-10
(PID.TID 0000.0001) %MON exf_swflux_max               =  -8.1205755472183E-02
(PID.TID 0000.0001) %MON exf_swflux_min               =  -6.3973114013672E+01
(PID.TID 0000.0001) %MON exf_swflux_mean              =  -2.6453223022948E+01
(PID.TID 0000.0001) %MON exf_swflux_sd                =   1.9625901079469E+01
(PID.TID 0000.0001) %MON exf_swflux_del2              =   8.9569843561739E-02
(PID.TID 0000.0001) %MON exf_swdown_max               =   7.1081237792969E+01
(PID.TID 0000.0001) %MON exf_swdown_min               =   9.0228617191315E-02
(PID.TID 0000.0001) %MON exf_swdown_mean              =   2.9392470025498E+01
(PID.TID 0000.0001) %MON exf_swdown_sd                =   2.1806556754965E+01
(PID.TID 0000.0001) %MON exf_swdown_del2              =   9.9522048401932E-02
(PID.TID 0000.0001) %MON exf_lwdown_max               =   3.0567971801758E+02
(PID.TID 0000.0001) %MON exf_lwdown_min               =   1.1599769210815E+02
(PID.TID 0000.0001) %MON exf_lwdown_mean              =   2.2594931695913E+02
(PID.TID 0000.0001) %MON exf_lwdown_sd                =   4.6277429231296E+01
(PID.TID 0000.0001) %MON exf_lwdown_del2              =   9.0882714528760E-01
(PID.TID 0000.0001) %MON exf_climsss_max              =   3.5040330886841E+01
(PID.TID 0000.0001) %MON exf_climsss_min              =   3.0666313171387E+01
(PID.TID 0000.0001) %MON exf_climsss_mean             =   3.3459319600989E+01
(PID.TID 0000.0001) %MON exf_climsss_sd               =   1.0319548925494E+00
(PID.TID 0000.0001) %MON exf_climsss_del2             =   2.6975862895226E-02
(PID.TID 0000.0001) // =======================================================
(PID.TID 0000.0001) // End MONITOR EXF statistics
(PID.TID 0000.0001) // =======================================================
DEBUG_STATS_RL: Uice pre  iter (SEAICE_LSR  1)  min=  0.00000000000000E+00
DEBUG_STATS_RL: Uice pre  iter (SEAICE_LSR  1)  max=  0.00000000000000E+00
DEBUG_STATS_RL: Uice pre  iter (SEAICE_LSR  1) mean=  0.00000000000000E+00
DEBUG_STATS_RL: Uice pre  iter (SEAICE_LSR  1) S.D.=  0.00000000000000E+00
DEBUG_STATS_RL: Vice pre  iter (SEAICE_LSR  1)  min=  0.00000000000000E+00
DEBUG_STATS_RL: Vice pre  iter (SEAICE_LSR  1)  max=  0.00000000000000E+00
DEBUG_STATS_RL: Vice pre  iter (SEAICE_LSR  1) mean=  0.00000000000000E+00
DEBUG_STATS_RL: Vice pre  iter (SEAICE_LSR  1) S.D.=  0.00000000000000E+00
DEBUG_STATS_RL: Uice pre  iter (SEAICE_LSR  2)  min= -4.74478293331770E-04
DEBUG_STATS_RL: Uice pre  iter (SEAICE_LSR  2)  max=  5.19863184318560E-03
DEBUG_STATS_RL: Uice pre  iter (SEAICE_LSR  2) mean=  1.15969103043184E-03
DEBUG_STATS_RL: Uice pre  iter (SEAICE_LSR  2) S.D.=  1.37050304765703E-03
DEBUG_STATS_RL: Vice pre  iter (SEAICE_LSR  2)  min= -2.82028703630720E-03
DEBUG_STATS_RL: Vice pre  iter (SEAICE_LSR  2)  max=  8.55909305417855E-04
DEBUG_STATS_RL: Vice pre  iter (SEAICE_LSR  2) mean= -7.32602707228794E-04
DEBUG_STATS_RL: Vice pre  iter (SEAICE_LSR  2) S.D.=  9.65742386214621E-04
DEBUG_STATS_RL:                EtaN (DYNAMICS)  min=  0.00000000000000E+00
DEBUG_STATS_RL:                EtaN (DYNAMICS)  max=  0.00000000000000E+00
DEBUG_STATS_RL:                EtaN (DYNAMICS) mean=  0.00000000000000E+00
DEBUG_STATS_RL:                EtaN (DYNAMICS) S.D.=  0.00000000000000E+00
DEBUG_STATS_RL:                Uvel (DYNAMICS)  min=  0.00000000000000E+00
DEBUG_STATS_RL:                Uvel (DYNAMICS)  max=  0.00000000000000E+00
DEBUG_STATS_RL:                Uvel (DYNAMICS) mean=  0.00000000000000E+00
DEBUG_STATS_RL:                Uvel (DYNAMICS) S.D.=  0.00000000000000E+00
DEBUG_STATS_RL:                Vvel (DYNAMICS)  min=  0.00000000000000E+00
DEBUG_STATS_RL:                Vvel (DYNAMICS)  max=  0.00000000000000E+00
DEBUG_STATS_RL:                Vvel (DYNAMICS) mean=  0.00000000000000E+00
DEBUG_STATS_RL:                Vvel (DYNAMICS) S.D.=  0.00000000000000E+00
DEBUG_STATS_RL:                Wvel (DYNAMICS)  min=  0.00000000000000E+00
DEBUG_STATS_RL:                Wvel (DYNAMICS)  max=  0.00000000000000E+00
DEBUG_STATS_RL:                Wvel (DYNAMICS) mean=  0.00000000000000E+00
DEBUG_STATS_RL:                Wvel (DYNAMICS) S.D.=  0.00000000000000E+00
DEBUG_STATS_RL:               Theta (DYNAMICS)  min= -1.41036188602448E+00
DEBUG_STATS_RL:               Theta (DYNAMICS)  max=  1.33330764770508E+01
DEBUG_STATS_RL:               Theta (DYNAMICS) mean=  2.90475522269124E+00
DEBUG_STATS_RL:               Theta (DYNAMICS) S.D.=  2.44037465259698E+00
DEBUG_STATS_RL:                Salt (DYNAMICS)  min=  3.01286983489990E+01
DEBUG_STATS_RL:                Salt (DYNAMICS)  max=  3.54506225585938E+01
DEBUG_STATS_RL:                Salt (DYNAMICS) mean=  3.40845304745500E+01
DEBUG_STATS_RL:                Salt (DYNAMICS) S.D.=  9.00924836964808E-01
DEBUG_STATS_RL:                  Gu (DYNAMICS)  min= -2.00599447531986E-02
DEBUG_STATS_RL:                  Gu (DYNAMICS)  max=  1.04076999541495E-02
DEBUG_STATS_RL:                  Gu (DYNAMICS) mean= -2.58939542765896E-03
DEBUG_STATS_RL:                  Gu (DYNAMICS) S.D.=  4.84472279217175E-03
DEBUG_STATS_RL:                  Gv (DYNAMICS)  min= -2.97181268783620E-02
DEBUG_STATS_RL:                  Gv (DYNAMICS)  max=  1.05795727308992E-02
DEBUG_STATS_RL:                  Gv (DYNAMICS) mean= -1.51075895161939E-03
DEBUG_STATS_RL:                  Gv (DYNAMICS) S.D.=  5.23505354600419E-03
DEBUG_STATS_RL:               GuNm1 (DYNAMICS)  min=  0.00000000000000E+00
DEBUG_STATS_RL:               GuNm1 (DYNAMICS)  max=  0.00000000000000E+00
DEBUG_STATS_RL:               GuNm1 (DYNAMICS) mean=  0.00000000000000E+00
DEBUG_STATS_RL:               GuNm1 (DYNAMICS) S.D.=  0.00000000000000E+00
DEBUG_STATS_RL:               GvNm1 (DYNAMICS)  min=  0.00000000000000E+00
DEBUG_STATS_RL:               GvNm1 (DYNAMICS)  max=  0.00000000000000E+00
DEBUG_STATS_RL:               GvNm1 (DYNAMICS) mean=  0.00000000000000E+00
DEBUG_STATS_RL:               GvNm1 (DYNAMICS) S.D.=  0.00000000000000E+00
DEBUG_STATS_RL:               GtNm1 (DYNAMICS)  min=  0.00000000000000E+00
DEBUG_STATS_RL:               GtNm1 (DYNAMICS)  max=  0.00000000000000E+00
DEBUG_STATS_RL:               GtNm1 (DYNAMICS) mean=  0.00000000000000E+00
DEBUG_STATS_RL:               GtNm1 (DYNAMICS) S.D.=  0.00000000000000E+00
DEBUG_STATS_RL:               GsNm1 (DYNAMICS)  min=  0.00000000000000E+00
DEBUG_STATS_RL:               GsNm1 (DYNAMICS)  max=  0.00000000000000E+00
DEBUG_STATS_RL:               GsNm1 (DYNAMICS) mean=  0.00000000000000E+00
DEBUG_STATS_RL:               GsNm1 (DYNAMICS) S.D.=  0.00000000000000E+00
(PID.TID 0000.0001) SOLVE_FOR_PRESSURE: putPmEinXvector =    F
DEBUG_STATS_RL:    cg2d_b (SOLVE_FOR_PRESSURE)  min= -6.15797366908278E+03
DEBUG_STATS_RL:    cg2d_b (SOLVE_FOR_PRESSURE)  max=  2.03762696322118E+03
DEBUG_STATS_RL:    cg2d_b (SOLVE_FOR_PRESSURE) mean=  2.40637139844087E-14
DEBUG_STATS_RL:    cg2d_b (SOLVE_FOR_PRESSURE) S.D.=  8.03730450548215E+02
 cg2d: Sum(rhs),rhsMax =   7.91033905045424E-16  9.91122157459750E-01
DEBUG_STATS_RL:    cg2d_x (SOLVE_FOR_PRESSURE)  min= -7.77200124675132E-01
DEBUG_STATS_RL:    cg2d_x (SOLVE_FOR_PRESSURE)  max=  2.02552651121663E+00
DEBUG_STATS_RL:    cg2d_x (SOLVE_FOR_PRESSURE) mean= -8.58037095103906E-03
DEBUG_STATS_RL:    cg2d_x (SOLVE_FOR_PRESSURE) S.D.=  4.14863218307968E-01
(PID.TID 0000.0001)      cg2d_init_res =   1.59852055268173E+00
(PID.TID 0000.0001)      cg2d_iters(min,last) =      -1      47
(PID.TID 0000.0001)      cg2d_last_res =   5.76526722749241E-14
DEBUG_STATS_RL:          Uvel (THERMODYNAMICS)  min= -1.97613285723242E-02
DEBUG_STATS_RL:          Uvel (THERMODYNAMICS)  max=  1.31897193240012E-02
DEBUG_STATS_RL:          Uvel (THERMODYNAMICS) mean= -7.76915115649382E-04
DEBUG_STATS_RL:          Uvel (THERMODYNAMICS) S.D.=  3.97168834923499E-03
DEBUG_STATS_RL:          Vvel (THERMODYNAMICS)  min= -1.13773235335529E-02
DEBUG_STATS_RL:          Vvel (THERMODYNAMICS)  max=  2.04284639774261E-02
DEBUG_STATS_RL:          Vvel (THERMODYNAMICS) mean=  7.24190880687442E-04
DEBUG_STATS_RL:          Vvel (THERMODYNAMICS) S.D.=  4.28907995073846E-03
DEBUG_STATS_RL:          Wvel (THERMODYNAMICS)  min= -4.27131465138430E-05
DEBUG_STATS_RL:          Wvel (THERMODYNAMICS)  max=  1.16530364658749E-04
DEBUG_STATS_RL:          Wvel (THERMODYNAMICS) mean= -4.07763417598552E-07
DEBUG_STATS_RL:          Wvel (THERMODYNAMICS) S.D.=  1.80149904412009E-05
DEBUG_STATS_RL:         Theta (THERMODYNAMICS)  min= -1.41019615972461E+00
DEBUG_STATS_RL:         Theta (THERMODYNAMICS)  max=  1.32440592110212E+01
DEBUG_STATS_RL:         Theta (THERMODYNAMICS) mean=  2.49735783552472E+00
DEBUG_STATS_RL:         Theta (THERMODYNAMICS) S.D.=  2.45807980529386E+00
DEBUG_STATS_RL:          Salt (THERMODYNAMICS)  min=  2.76560994014067E+01
DEBUG_STATS_RL:          Salt (THERMODYNAMICS)  max=  3.54507778736995E+01
DEBUG_STATS_RL:          Salt (THERMODYNAMICS) mean=  3.39623217189232E+01
DEBUG_STATS_RL:          Salt (THERMODYNAMICS) S.D.=  1.10108958710508E+00
DEBUG_STATS_RL:         GtNm1 (THERMODYNAMICS)  min=  0.00000000000000E+00
DEBUG_STATS_RL:         GtNm1 (THERMODYNAMICS)  max=  0.00000000000000E+00
DEBUG_STATS_RL:         GtNm1 (THERMODYNAMICS) mean=  0.00000000000000E+00
DEBUG_STATS_RL:         GtNm1 (THERMODYNAMICS) S.D.=  0.00000000000000E+00
DEBUG_STATS_RL:         GsNm1 (THERMODYNAMICS)  min=  0.00000000000000E+00
DEBUG_STATS_RL:         GsNm1 (THERMODYNAMICS)  max=  0.00000000000000E+00
DEBUG_STATS_RL:         GsNm1 (THERMODYNAMICS) mean=  0.00000000000000E+00
DEBUG_STATS_RL:         GsNm1 (THERMODYNAMICS) S.D.=  0.00000000000000E+00
(PID.TID 0000.0001) // =======================================================
(PID.TID 0000.0001) // Begin MONITOR dynamic field statistics
(PID.TID 0000.0001) // =======================================================
(PID.TID 0000.0001) %MON time_tsnumber                =                     1
(PID.TID 0000.0001) %MON time_secondsf                =   3.6000000000000E+03
(PID.TID 0000.0001) %MON dynstat_eta_max              =   2.0635789062478E-01
(PID.TID 0000.0001) %MON dynstat_eta_min              =  -7.9180093389618E-02
(PID.TID 0000.0001) %MON dynstat_eta_mean             =  -7.0745345024217E-17
(PID.TID 0000.0001) %MON dynstat_eta_sd               =   4.6882440036868E-02
(PID.TID 0000.0001) %MON dynstat_eta_del2             =   2.0374699653594E-03
(PID.TID 0000.0001) %MON dynstat_uvel_max             =   1.3189719324001E-02
(PID.TID 0000.0001) %MON dynstat_uvel_min             =  -1.9761328572324E-02
(PID.TID 0000.0001) %MON dynstat_uvel_mean            =  -9.4725813160821E-04
(PID.TID 0000.0001) %MON dynstat_uvel_sd              =   2.8475894394766E-03
(PID.TID 0000.0001) %MON dynstat_uvel_del2            =   1.3605386879760E-04
(PID.TID 0000.0001) %MON dynstat_vvel_max             =   2.0428463977426E-02
(PID.TID 0000.0001) %MON dynstat_vvel_min             =  -1.1377323533553E-02
(PID.TID 0000.0001) %MON dynstat_vvel_mean            =  -1.7096163141225E-03
(PID.TID 0000.0001) %MON dynstat_vvel_sd              =   4.3712424857782E-03
(PID.TID 0000.0001) %MON dynstat_vvel_del2            =   1.0842533529664E-04
(PID.TID 0000.0001) %MON dynstat_wvel_max             =   1.1653036465875E-04
(PID.TID 0000.0001) %MON dynstat_wvel_min             =  -4.2713146513843E-05
(PID.TID 0000.0001) %MON dynstat_wvel_mean            =   1.7300504224580E-22
(PID.TID 0000.0001) %MON dynstat_wvel_sd              =   2.4879745754113E-05
(PID.TID 0000.0001) %MON dynstat_wvel_del2            =   4.3463536687367E-07
(PID.TID 0000.0001) %MON dynstat_theta_max            =   1.3244059211021E+01
(PID.TID 0000.0001) %MON dynstat_theta_min            =  -1.4101961597246E+00
(PID.TID 0000.0001) %MON dynstat_theta_mean           =   3.0799051159857E+00
(PID.TID 0000.0001) %MON dynstat_theta_sd             =   1.4087902077563E+00
(PID.TID 0000.0001) %MON dynstat_theta_del2           =   9.9668606826833E-03
(PID.TID 0000.0001) %MON dynstat_salt_max             =   3.5450777873699E+01
(PID.TID 0000.0001) %MON dynstat_salt_min             =   2.7656099401407E+01
(PID.TID 0000.0001) %MON dynstat_salt_mean            =   3.4748274360176E+01
(PID.TID 0000.0001) %MON dynstat_salt_sd              =   4.9950768681510E-01
(PID.TID 0000.0001) %MON dynstat_salt_del2            =   3.7427842889795E-03
(PID.TID 0000.0001) %MON dynstat_sst_max              =   5.3934737593924E+00
(PID.TID 0000.0001) %MON dynstat_sst_min              =  -1.3225664590658E+00
(PID.TID 0000.0001) %MON dynstat_sst_mean             =  -2.7537972371352E-01
(PID.TID 0000.0001) %MON dynstat_sst_sd               =   1.0836988248825E+00
(PID.TID 0000.0001) %MON dynstat_sst_del2             =   3.4465413395866E-02
(PID.TID 0000.0001) %MON dynstat_sss_max              =   3.3033705177433E+01
(PID.TID 0000.0001) %MON dynstat_sss_min              =   2.7656099401407E+01
(PID.TID 0000.0001) %MON dynstat_sss_mean             =   3.1528748252100E+01
(PID.TID 0000.0001) %MON dynstat_sss_sd               =   1.1971941277959E+00
(PID.TID 0000.0001) %MON dynstat_sss_del2             =   2.4205086685429E-02
(PID.TID 0000.0001) %MON forcing_qnet_max             =   9.0561059070243E+04
(PID.TID 0000.0001) %MON forcing_qnet_min             =   2.6204517270457E+04
(PID.TID 0000.0001) %MON forcing_qnet_mean            =   6.2508316108346E+04
(PID.TID 0000.0001) %MON forcing_qnet_sd              =   1.9048264239043E+04
(PID.TID 0000.0001) %MON forcing_qnet_del2            =   2.7858163484728E+02
(PID.TID 0000.0001) %MON forcing_qsw_max              =   0.0000000000000E+00
(PID.TID 0000.0001) %MON forcing_qsw_min              =  -7.4464570367085E-03
(PID.TID 0000.0001) %MON forcing_qsw_mean             =  -4.2931352886015E-04
(PID.TID 0000.0001) %MON forcing_qsw_sd               =   1.1045191592006E-03
(PID.TID 0000.0001) %MON forcing_qsw_del2             =   1.0195827038527E-04
(PID.TID 0000.0001) %MON forcing_empmr_max            =  -7.8376652714492E-02
(PID.TID 0000.0001) %MON forcing_empmr_min            =  -2.7120986112526E-01
(PID.TID 0000.0001) %MON forcing_empmr_mean           =  -1.8716167265521E-01
(PID.TID 0000.0001) %MON forcing_empmr_sd             =   5.7112057826654E-02
(PID.TID 0000.0001) %MON forcing_empmr_del2           =   8.3344882227806E-04
(PID.TID 0000.0001) %MON forcing_fu_max               =   3.0104541914063E-03
(PID.TID 0000.0001) %MON forcing_fu_min               =  -2.8985687456859E-04
(PID.TID 0000.0001) %MON forcing_fu_mean              =   8.4617818381511E-04
(PID.TID 0000.0001) %MON forcing_fu_sd                =   8.2077954025634E-04
(PID.TID 0000.0001) %MON forcing_fu_del2              =   2.1159115419471E-05
(PID.TID 0000.0001) %MON forcing_fv_max               =   1.0219022674505E-03
(PID.TID 0000.0001) %MON forcing_fv_min               =  -1.4983409936998E-03
(PID.TID 0000.0001) %MON forcing_fv_mean              =  -2.4809767529760E-04
(PID.TID 0000.0001) %MON forcing_fv_sd                =   6.5025096310777E-04
(PID.TID 0000.0001) %MON forcing_fv_del2              =   1.2706220493141E-05
(PID.TID 0000.0001) %MON trAdv_CFL_u_max              =   5.8543430837997E-04
(PID.TID 0000.0001) %MON trAdv_CFL_v_max              =   3.2446873793469E-04
(PID.TID 0000.0001) %MON trAdv_CFL_w_max              =   2.1163796402393E-02
(PID.TID 0000.0001) %MON advcfl_uvel_max              =   5.8540458658459E-04
(PID.TID 0000.0001) %MON advcfl_vvel_max              =   3.3069166255137E-04
(PID.TID 0000.0001) %MON advcfl_wvel_max              =   4.1271578124955E-02
(PID.TID 0000.0001) %MON advcfl_W_hf_max              =   2.1699547571292E-02
(PID.TID 0000.0001) %MON pe_b_mean                    =   7.2459153333855E-06
(PID.TID 0000.0001) %MON ke_max                       =   1.5940955905655E-04
(PID.TID 0000.0001) %MON ke_mean                      =   1.2133746210659E-05
(PID.TID 0000.0001) %MON ke_vol                       =   5.3036189546438E+15
(PID.TID 0000.0001) %MON vort_r_min                   =  -1.3728778519087E-07
(PID.TID 0000.0001) %MON vort_r_max                   =   1.1140677608186E-07
(PID.TID 0000.0001) %MON vort_a_mean                  =   1.2067277213448E-04
(PID.TID 0000.0001) %MON vort_a_sd                    =   8.8106506474901E-06
(PID.TID 0000.0001) %MON vort_p_mean                  =   1.7734842597826E-04
(PID.TID 0000.0001) %MON vort_p_sd                    =   1.1691075637731E-04
(PID.TID 0000.0001) %MON surfExpan_theta_mean         =   5.0973732888380E-06
(PID.TID 0000.0001) %MON surfExpan_salt_mean          =  -5.2016393427536E-06
(PID.TID 0000.0001) // =======================================================
(PID.TID 0000.0001) // End MONITOR dynamic field statistics
(PID.TID 0000.0001) // =======================================================
(PID.TID 0000.0001) // =======================================================
(PID.TID 0000.0001) // Begin MONITOR SEAICE statistics
(PID.TID 0000.0001) // =======================================================
(PID.TID 0000.0001) %MON seaice_tsnumber              =                     1
(PID.TID 0000.0001) %MON seaice_time_sec              =   3.6000000000000E+03
(PID.TID 0000.0001) %MON seaice_uice_max              =   1.2041816765625E-02
(PID.TID 0000.0001) %MON seaice_uice_min              =  -1.1594274982743E-03
(PID.TID 0000.0001) %MON seaice_uice_mean             =   3.3847127352605E-03
(PID.TID 0000.0001) %MON seaice_uice_sd               =   3.2831181610253E-03
(PID.TID 0000.0001) %MON seaice_uice_del2             =   8.4636461677883E-05
(PID.TID 0000.0001) %MON seaice_vice_max              =   4.0876090698019E-03
(PID.TID 0000.0001) %MON seaice_vice_min              =  -5.9933639747991E-03
(PID.TID 0000.0001) %MON seaice_vice_mean             =  -9.9239070119039E-04
(PID.TID 0000.0001) %MON seaice_vice_sd               =   2.6010038524311E-03
(PID.TID 0000.0001) %MON seaice_vice_del2             =   5.0824881972566E-05
(PID.TID 0000.0001) %MON seaice_area_max              =   1.0000000000000E+00
(PID.TID 0000.0001) %MON seaice_area_min              =   0.0000000000000E+00
(PID.TID 0000.0001) %MON seaice_area_mean             =   8.8241200560263E-01
(PID.TID 0000.0001) %MON seaice_area_sd               =   3.2210186307064E-01
(PID.TID 0000.0001) %MON seaice_area_del2             =   2.6666475765636E-02
(PID.TID 0000.0001) %MON seaice_heff_max              =   6.8993339730814E-01
(PID.TID 0000.0001) %MON seaice_heff_min              =   0.0000000000000E+00
(PID.TID 0000.0001) %MON seaice_heff_mean             =   2.9490227044551E-01
(PID.TID 0000.0001) %MON seaice_heff_sd               =   2.0099380371287E-01
(PID.TID 0000.0001) %MON seaice_heff_del2             =   2.9402325277942E-03
(PID.TID 0000.0001) %MON seaice_hsnow_max             =   2.0039559091401E-01
(PID.TID 0000.0001) %MON seaice_hsnow_min             =   0.0000000000000E+00
(PID.TID 0000.0001) %MON seaice_hsnow_mean            =   1.0299360277347E-01
(PID.TID 0000.0001) %MON seaice_hsnow_sd              =   6.8795864811697E-02
(PID.TID 0000.0001) %MON seaice_hsnow_del2            =   1.0521246040122E-03
(PID.TID 0000.0001) %MON seaice_hsalt_max             =   6.1745689548497E+03
(PID.TID 0000.0001) %MON seaice_hsalt_min             =   0.0000000000000E+00
(PID.TID 0000.0001) %MON seaice_hsalt_mean            =   2.4300882555078E+03
(PID.TID 0000.0001) %MON seaice_hsalt_sd              =   1.8706040774224E+03
(PID.TID 0000.0001) %MON seaice_hsalt_del2            =   2.8445135589932E+01
(PID.TID 0000.0001) // =======================================================
(PID.TID 0000.0001) // End MONITOR SEAICE statistics
(PID.TID 0000.0001) // =======================================================
 Computing Diagnostic #     23  ETAN         Counter:       1   Parms: SM      M1      
(PID.TID 0000.0001)  MDS_WRITE_FIELD: it,rec,kS,kL,kH=       1    -1  46   1   1 file=diags/state_2d_set1.0000000001
 Computing Diagnostic #    294  SIarea       Counter:       1   Parms: SM      M1      
(PID.TID 0000.0001)  MDS_WRITE_FIELD: it,rec,kS,kL,kH=       1    -2  46   1   1 file=diags/state_2d_set1.0000000001
 Computing Diagnostic #    297  SIheff       Counter:       1   Parms: SM      M1      
(PID.TID 0000.0001)  MDS_WRITE_FIELD: it,rec,kS,kL,kH=       1    -3  46   1   1 file=diags/state_2d_set1.0000000001
 Computing Diagnostic #    299  SIhsnow      Counter:       1   Parms: SM      M1      
(PID.TID 0000.0001)  MDS_WRITE_FIELD: it,rec,kS,kL,kH=       1    -4  46   1   1 file=diags/state_2d_set1.0000000001
 Computing Diagnostic #     25  DETADT2      Counter:       1   Parms: SM      M1      
(PID.TID 0000.0001)  MDS_WRITE_FIELD: it,rec,kS,kL,kH=       1    -5  46   1   1 file=diags/state_2d_set1.0000000001
 Computing Diagnostic #     73  PHIBOT       Counter:       1   Parms: SM      M1      
(PID.TID 0000.0001)  MDS_WRITE_FIELD: it,rec,kS,kL,kH=       1    -6  46   1   1 file=diags/state_2d_set1.0000000001
 Computing Diagnostic #     82  sIceLoad     Counter:       1   Parms: SM      U1      
(PID.TID 0000.0001)  MDS_WRITE_FIELD: it,rec,kS,kL,kH=       1    -7  46   1   1 file=diags/state_2d_set1.0000000001
 Computing Diagnostic #     76  MXLDEPTH     Counter:       1   Parms: SM      M1      
(PID.TID 0000.0001)  MDS_WRITE_FIELD: it,rec,kS,kL,kH=       1    -8  46   1   1 file=diags/state_2d_set1.0000000001
 Computing Diagnostic #    325  SIatmFW      Counter:       1   Parms: SM      U1      
(PID.TID 0000.0001)  MDS_WRITE_FIELD: it,rec,kS,kL,kH=       1    -9  46   1   1 file=diags/state_2d_set1.0000000001
 Computing Diagnostic #     85  oceQnet      Counter:       1   Parms: SM      U1      
(PID.TID 0000.0001)  MDS_WRITE_FIELD: it,rec,kS,kL,kH=       1   -10  46   1   1 file=diags/state_2d_set1.0000000001
 Computing Diagnostic #     83  oceFWflx     Counter:       1   Parms: SM      U1      
(PID.TID 0000.0001)  MDS_WRITE_FIELD: it,rec,kS,kL,kH=       1   -11  46   1   1 file=diags/state_2d_set1.0000000001
 Computing Diagnostic #     79  oceTAUX      Counter:       1   Parms: UU      U1      
           Vector  Mate for  oceTAUX      Diagnostic #     80  oceTAUY  exists 
(PID.TID 0000.0001)  MDS_WRITE_FIELD: it,rec,kS,kL,kH=       1   -12  46   1   1 file=diags/state_2d_set1.0000000001
 Computing Diagnostic #     80  oceTAUY      Counter:       1   Parms: VV      U1      
           Vector  Mate for  oceTAUY      Diagnostic #     79  oceTAUX  exists 
(PID.TID 0000.0001)  MDS_WRITE_FIELD: it,rec,kS,kL,kH=       1   -13  46   1   1 file=diags/state_2d_set1.0000000001
 Computing Diagnostic #    311  SIuice       Counter:       1   Parms: UU      M1      
           Vector  Mate for  SIuice       Diagnostic #    312  SIvice   exists 
(PID.TID 0000.0001)  MDS_WRITE_FIELD: it,rec,kS,kL,kH=       1   -14  46   1   1 file=diags/state_2d_set1.0000000001
 Computing Diagnostic #    312  SIvice       Counter:       1   Parms: VV      M1      
           Vector  Mate for  SIvice       Diagnostic #    311  SIuice   exists 
(PID.TID 0000.0001)  MDS_WRITE_FIELD: it,rec,kS,kL,kH=       1   -15  46   1   1 file=diags/state_2d_set1.0000000001
 Computing Diagnostic #     24  ETANSQ       Counter:       1   Parms: SM P    M1      
(PID.TID 0000.0001)  MDS_WRITE_FIELD: it,rec,kS,kL,kH=       1   -16  46   1   1 file=diags/state_2d_set1.0000000001
 Computing Diagnostic #     26  THETA        Counter:       1   Parms: SMR     MR      
(PID.TID 0000.0001)  MDS_WRITE_FIELD: it,rec,kS,kL,kH=       1    -1  46   1  23 file=diags/state_3d_set1.0000000001
 Computing Diagnostic #     27  SALT         Counter:       1   Parms: SMR     MR      
(PID.TID 0000.0001)  MDS_WRITE_FIELD: it,rec,kS,kL,kH=       1    -2  46   1  23 file=diags/state_3d_set1.0000000001
 Computing Diagnostic #     45  UVELMASS     Counter:       1   Parms: UUr     MR      
           Vector  Mate for  UVELMASS     Diagnostic #     46  VVELMASS exists 
(PID.TID 0000.0001)  MDS_WRITE_FIELD: it,rec,kS,kL,kH=       1    -1  46   1  23 file=diags/trsp_3d_set1.0000000001
 Computing Diagnostic #     46  VVELMASS     Counter:       1   Parms: VVr     MR      
           Vector  Mate for  VVELMASS     Diagnostic #     45  UVELMASS exists 
(PID.TID 0000.0001)  MDS_WRITE_FIELD: it,rec,kS,kL,kH=       1    -2  46   1  23 file=diags/trsp_3d_set1.0000000001
 Computing Diagnostic #    224  EXFpreci     Counter:       1   Parms: SM      U1      
(PID.TID 0000.0001)  MDS_WRITE_FIELD: it,rec,kS,kL,kH=       1    -1  46   1   1 file=diags/exf_zflux_set1.0000000001
 Computing Diagnostic #    223  EXFevap      Counter:       1   Parms: SM      U1      
(PID.TID 0000.0001)  MDS_WRITE_FIELD: it,rec,kS,kL,kH=       1    -2  46   1   1 file=diags/exf_zflux_set1.0000000001
 Computing Diagnostic #    228  EXFroff      Counter:       1   Parms: SM      U1      
(PID.TID 0000.0001)  MDS_WRITE_FIELD: it,rec,kS,kL,kH=       1    -3  46   1   1 file=diags/exf_zflux_set1.0000000001
 Computing Diagnostic #    226  EXFempmr     Counter:       1   Parms: SM      U1      
(PID.TID 0000.0001)  MDS_WRITE_FIELD: it,rec,kS,kL,kH=       1    -4  46   1   1 file=diags/exf_zflux_set1.0000000001
 Computing Diagnostic #    212  EXFswdn      Counter:       1   Parms: SM      U1      
(PID.TID 0000.0001)  MDS_WRITE_FIELD: it,rec,kS,kL,kH=       1    -5  46   1   1 file=diags/exf_zflux_set1.0000000001
 Computing Diagnostic #    211  EXFlwdn      Counter:       1   Parms: SM      U1      
(PID.TID 0000.0001)  MDS_WRITE_FIELD: it,rec,kS,kL,kH=       1    -6  46   1   1 file=diags/exf_zflux_set1.0000000001
 Computing Diagnostic #    210  EXFswnet     Counter:       1   Parms: SM      U1      
(PID.TID 0000.0001)  MDS_WRITE_FIELD: it,rec,kS,kL,kH=       1    -7  46   1   1 file=diags/exf_zflux_set1.0000000001
 Computing Diagnostic #    209  EXFlwnet     Counter:       1   Parms: SM      U1      
(PID.TID 0000.0001)  MDS_WRITE_FIELD: it,rec,kS,kL,kH=       1    -8  46   1   1 file=diags/exf_zflux_set1.0000000001
 Computing Diagnostic #    213  EXFqnet      Counter:       1   Parms: SM      U1      
(PID.TID 0000.0001)  MDS_WRITE_FIELD: it,rec,kS,kL,kH=       1    -9  46   1   1 file=diags/exf_zflux_set1.0000000001
 Computing Diagnostic #    221  EXFatemp     Counter:       1   Parms: SM      U1      
(PID.TID 0000.0001)  MDS_WRITE_FIELD: it,rec,kS,kL,kH=       1   -10  46   1   1 file=diags/exf_zflux_set1.0000000001
 Computing Diagnostic #    222  EXFaqh       Counter:       1   Parms: SM      U1      
(PID.TID 0000.0001)  MDS_WRITE_FIELD: it,rec,kS,kL,kH=       1   -11  46   1   1 file=diags/exf_zflux_set1.0000000001
 Computing Diagnostic #    214  EXFtaux      Counter:       1   Parms: UM      U1      
(PID.TID 0000.0001)  MDS_WRITE_FIELD: it,rec,kS,kL,kH=       1   -12  46   1   1 file=diags/exf_zflux_set1.0000000001
 Computing Diagnostic #    215  EXFtauy      Counter:       1   Parms: VM      U1      
(PID.TID 0000.0001)  MDS_WRITE_FIELD: it,rec,kS,kL,kH=       1   -13  46   1   1 file=diags/exf_zflux_set1.0000000001
 Computing Diagnostic #    216  EXFuwind     Counter:       1   Parms: UM      U1      
(PID.TID 0000.0001)  MDS_WRITE_FIELD: it,rec,kS,kL,kH=       1   -14  46   1   1 file=diags/exf_zflux_set1.0000000001
 Computing Diagnostic #    217  EXFvwind     Counter:       1   Parms: VM      U1      
(PID.TID 0000.0001)  MDS_WRITE_FIELD: it,rec,kS,kL,kH=       1   -15  46   1   1 file=diags/exf_zflux_set1.0000000001
 Computing Diagnostic #    227  EXFpress     Counter:       1   Parms: SM      U1      
(PID.TID 0000.0001)  MDS_WRITE_FIELD: it,rec,kS,kL,kH=       1   -16  46   1   1 file=diags/exf_zflux_set1.0000000001
 Computing Diagnostic #    207  EXFhs        Counter:       1   Parms: SM      U1      
(PID.TID 0000.0001)  MDS_WRITE_FIELD: it,rec,kS,kL,kH=       1   -17  46   1   1 file=diags/exf_zflux_set1.0000000001
 Computing Diagnostic #    208  EXFhl        Counter:       1   Parms: SM      U1      
(PID.TID 0000.0001)  MDS_WRITE_FIELD: it,rec,kS,kL,kH=       1   -18  46   1   1 file=diags/exf_zflux_set1.0000000001
(PID.TID 0000.0001)  write diagnostics summary to file: diagnostics_status.0000000001.txt
(PID.TID 0000.0001)  MDS_WRITE_FIELD: it,rec,kS,kL,kH=       1     1  23   1  23 file=pickup_cd.0000000001
(PID.TID 0000.0001)  MDS_WRITE_FIELD: it,rec,kS,kL,kH=       1     2  23   1  23 file=pickup_cd.0000000001
(PID.TID 0000.0001)  MDS_WRITE_FIELD: it,rec,kS,kL,kH=       1     3  23   1  23 file=pickup_cd.0000000001
(PID.TID 0000.0001)  MDS_WRITE_FIELD: it,rec,kS,kL,kH=       1     4  23   1  23 file=pickup_cd.0000000001
(PID.TID 0000.0001)  MDS_WRITE_FIELD: it,rec,kS,kL,kH=       1    93   1   1   1 file=pickup_cd.0000000001
(PID.TID 0000.0001)  MDS_WRITE_FIELD: it,rec,kS,kL,kH=       1    -1   7   1   7 file=pickup_seaice.0000000001
(PID.TID 0000.0001)  MDS_WRITE_FIELD: it,rec,kS,kL,kH=       1    -8   1   1   1 file=pickup_seaice.0000000001
(PID.TID 0000.0001)  MDS_WRITE_FIELD: it,rec,kS,kL,kH=       1    -9   1   1   1 file=pickup_seaice.0000000001
(PID.TID 0000.0001)  MDS_WRITE_FIELD: it,rec,kS,kL,kH=       1   -10   1   1   1 file=pickup_seaice.0000000001
(PID.TID 0000.0001)  MDS_WRITE_FIELD: it,rec,kS,kL,kH=       1   -11   1   1   1 file=pickup_seaice.0000000001
(PID.TID 0000.0001)  MDS_WRITE_FIELD: it,rec,kS,kL,kH=       1   -12   1   1   1 file=pickup_seaice.0000000001
(PID.TID 0000.0001)  MDS_WRITE_FIELD: it,rec,kS,kL,kH=       1   -13   1   1   1 file=pickup_seaice.0000000001
(PID.TID 0000.0001)  MDS_WRITE_FIELD: it,rec,kS,kL,kH=       1    -1  23   1  23 file=pickup.0000000001
(PID.TID 0000.0001)  MDS_WRITE_FIELD: it,rec,kS,kL,kH=       1    -2  23   1  23 file=pickup.0000000001
(PID.TID 0000.0001)  MDS_WRITE_FIELD: it,rec,kS,kL,kH=       1    -3  23   1  23 file=pickup.0000000001
(PID.TID 0000.0001)  MDS_WRITE_FIELD: it,rec,kS,kL,kH=       1    -4  23   1  23 file=pickup.0000000001
(PID.TID 0000.0001)  MDS_WRITE_FIELD: it,rec,kS,kL,kH=       1    -5  23   1  23 file=pickup.0000000001
(PID.TID 0000.0001)  MDS_WRITE_FIELD: it,rec,kS,kL,kH=       1    -6  23   1  23 file=pickup.0000000001
(PID.TID 0000.0001)  MDS_WRITE_FIELD: it,rec,kS,kL,kH=       1  -139   1   1   1 file=pickup.0000000001
(PID.TID 0000.0001)  MDS_WRITE_FIELD: it,rec,kS,kL,kH=       1  -140   1   1   1 file=pickup.0000000001
(PID.TID 0000.0001)  MDS_WRITE_FIELD: it,rec,kS,kL,kH=       1  -141   1   1   1 file=pickup.0000000001
(PID.TID 0000.0001) %CHECKPOINT         1 0000000001
(PID.TID 0000.0001)  MDS_WRITE_FIELD: it,rec,kS,kL,kH=       1     2   1   1   1 file=m_sst_step.0000000001
(PID.TID 0000.0001)  MDS_READ_FIELD: opening global file: xx_atemp.effective.0000000001.data
(PID.TID 0000.0001) EXF_SET_FLD: processing field "climsss",  file: SSS_monthly.labsea1979
(PID.TID 0000.0001) EXF_SET_FLD:   myIter, count0, count1:         1      1      2
(PID.TID 0000.0001) EXF_SET_FLD:   first, changed, fac:   F   F    0.49863387978142082
(PID.TID 0000.0001) EXF_SET_FLD: processing field "uwind",  file: u10m.labsea1979
(PID.TID 0000.0001) EXF_SET_FLD:   myIter, count0, count1:         1      1      2
(PID.TID 0000.0001) EXF_SET_FLD:   first, changed, fac:   F   F    0.49863387978142082
(PID.TID 0000.0001) EXF_SET_FLD: processing field "vwind",  file: v10m.labsea1979
(PID.TID 0000.0001) EXF_SET_FLD:   myIter, count0, count1:         1      1      2
(PID.TID 0000.0001) EXF_SET_FLD:   first, changed, fac:   F   F    0.49863387978142082
(PID.TID 0000.0001) EXF_SET_FLD: processing field "atemp",  file: tair.labsea1979
(PID.TID 0000.0001) EXF_SET_FLD:   myIter, count0, count1:         1      1      2
(PID.TID 0000.0001) EXF_SET_FLD:   first, changed, fac:   F   F    0.49863387978142082
(PID.TID 0000.0001) EXF_SET_FLD: processing field "aqh",  file: qa.labsea1979
(PID.TID 0000.0001) EXF_SET_FLD:   myIter, count0, count1:         1      1      2
(PID.TID 0000.0001) EXF_SET_FLD:   first, changed, fac:   F   F    0.49863387978142082
(PID.TID 0000.0001) EXF_SET_FLD: processing field "precip",  file: prate.labsea1979
(PID.TID 0000.0001) EXF_SET_FLD:   myIter, count0, count1:         1      1      2
(PID.TID 0000.0001) EXF_SET_FLD:   first, changed, fac:   F   F    0.49863387978142082
(PID.TID 0000.0001) EXF_SET_FLD: processing field "swdown",  file: fsh.labsea1979
(PID.TID 0000.0001) EXF_SET_FLD:   myIter, count0, count1:         1      1      2
(PID.TID 0000.0001) EXF_SET_FLD:   first, changed, fac:   F   F    0.49863387978142082
(PID.TID 0000.0001) EXF_SET_FLD: processing field "lwdown",  file: flo.labsea1979
(PID.TID 0000.0001) EXF_SET_FLD:   myIter, count0, count1:         1      1      2
(PID.TID 0000.0001) EXF_SET_FLD:   first, changed, fac:   F   F    0.49863387978142082
(PID.TID 0000.0001) // =======================================================
(PID.TID 0000.0001) // Begin MONITOR EXF statistics
(PID.TID 0000.0001) // =======================================================
(PID.TID 0000.0001) %MON exf_tsnumber                 =                     1
(PID.TID 0000.0001) %MON exf_time_sec                 =   3.6000000000000E+03
(PID.TID 0000.0001) %MON exf_ustress_max              =   5.2871268995222E-02
(PID.TID 0000.0001) %MON exf_ustress_min              =  -9.4021608443078E-02
(PID.TID 0000.0001) %MON exf_ustress_mean             =   1.8469277173654E-02
(PID.TID 0000.0001) %MON exf_ustress_sd               =   2.3963376318152E-02
(PID.TID 0000.0001) %MON exf_ustress_del2             =   7.1964274789828E-04
(PID.TID 0000.0001) %MON exf_vstress_max              =   5.3961642623049E-02
(PID.TID 0000.0001) %MON exf_vstress_min              =  -5.9356995711631E-02
(PID.TID 0000.0001) %MON exf_vstress_mean             =  -5.6630694220710E-03
(PID.TID 0000.0001) %MON exf_vstress_sd               =   1.4535742853501E-02
(PID.TID 0000.0001) %MON exf_vstress_del2             =   5.1338052104984E-04
(PID.TID 0000.0001) %MON exf_hflux_max                =   6.4669133747406E+02
(PID.TID 0000.0001) %MON exf_hflux_min                =  -4.9105797163422E+01
(PID.TID 0000.0001) %MON exf_hflux_mean               =   1.6715812988222E+02
(PID.TID 0000.0001) %MON exf_hflux_sd                 =   1.8324916936629E+02
(PID.TID 0000.0001) %MON exf_hflux_del2               =   5.5745009815196E+00
(PID.TID 0000.0001) %MON exf_sflux_max                =   4.2926565544808E-08
(PID.TID 0000.0001) %MON exf_sflux_min                =  -8.3493393213906E-08
(PID.TID 0000.0001) %MON exf_sflux_mean               =  -2.3771137771856E-08
(PID.TID 0000.0001) %MON exf_sflux_sd                 =   3.1292025999081E-08
(PID.TID 0000.0001) %MON exf_sflux_del2               =   9.8509482435820E-10
(PID.TID 0000.0001) %MON exf_uwind_max                =   6.4648819946852E+00
(PID.TID 0000.0001) %MON exf_uwind_min                =  -6.8372648550513E+00
(PID.TID 0000.0001) %MON exf_uwind_mean               =   2.7698802859475E+00
(PID.TID 0000.0001) %MON exf_uwind_sd                 =   2.9903162155877E+00
(PID.TID 0000.0001) %MON exf_uwind_del2               =   8.0272740743807E-02
(PID.TID 0000.0001) %MON exf_vwind_max                =   3.9240983933048E+00
(PID.TID 0000.0001) %MON exf_vwind_min                =  -6.0187974783892E+00
(PID.TID 0000.0001) %MON exf_vwind_mean               =  -7.6028090815952E-01
(PID.TID 0000.0001) %MON exf_vwind_sd                 =   1.7294518007626E+00
(PID.TID 0000.0001) %MON exf_vwind_del2               =   4.8614873505252E-02
(PID.TID 0000.0001) %MON exf_wspeed_max               =   7.8833202965791E+00
(PID.TID 0000.0001) %MON exf_wspeed_min               =   4.6010935417159E-01
(PID.TID 0000.0001) %MON exf_wspeed_mean              =   4.1982241536133E+00
(PID.TID 0000.0001) %MON exf_wspeed_sd                =   1.5994287774633E+00
(PID.TID 0000.0001) %MON exf_wspeed_del2              =   1.3306340289684E-01
(PID.TID 0000.0001) %MON exf_atemp_max                =   2.8203110034713E+02
(PID.TID 0000.0001) %MON exf_atemp_min                =   2.3660730413635E+02
(PID.TID 0000.0001) %MON exf_atemp_mean               =   2.6409141375606E+02
(PID.TID 0000.0001) %MON exf_atemp_sd                 =   1.1984878226631E+01
(PID.TID 0000.0001) %MON exf_atemp_del2               =   1.6499470137680E-01
(PID.TID 0000.0001) %MON exf_aqh_max                  =   6.3224764028055E-03
(PID.TID 0000.0001) %MON exf_aqh_min                  =   1.6359864467567E-04
(PID.TID 0000.0001) %MON exf_aqh_mean                 =   2.4798025537840E-03
(PID.TID 0000.0001) %MON exf_aqh_sd                   =   1.4264043737180E-03
(PID.TID 0000.0001) %MON exf_aqh_del2                 =   1.7544950873823E-05
(PID.TID 0000.0001) %MON exf_lwflux_max               =   1.8955025039847E+02
(PID.TID 0000.0001) %MON exf_lwflux_min               =   3.4245578038942E+01
(PID.TID 0000.0001) %MON exf_lwflux_mean              =   8.5810101242825E+01
(PID.TID 0000.0001) %MON exf_lwflux_sd                =   4.1997955831911E+01
(PID.TID 0000.0001) %MON exf_lwflux_del2              =   9.0333782437161E-01
(PID.TID 0000.0001) %MON exf_evap_max                 =   4.9250110657971E-08
(PID.TID 0000.0001) %MON exf_evap_min                 =  -5.5474573208701E-09
(PID.TID 0000.0001) %MON exf_evap_mean                =   1.2618931927195E-08
(PID.TID 0000.0001) %MON exf_evap_sd                  =   1.2080937088447E-08
(PID.TID 0000.0001) %MON exf_evap_del2                =   4.9641077374430E-10
(PID.TID 0000.0001) %MON exf_precip_max               =   1.0498904445033E-07
(PID.TID 0000.0001) %MON exf_precip_min               =   2.7346106047101E-10
(PID.TID 0000.0001) %MON exf_precip_mean              =   3.6390069699050E-08
(PID.TID 0000.0001) %MON exf_precip_sd                =   2.0578598603627E-08
(PID.TID 0000.0001) %MON exf_precip_del2              =   8.0994417539092E-10
(PID.TID 0000.0001) %MON exf_swflux_max               =  -8.1206038349965E-02
(PID.TID 0000.0001) %MON exf_swflux_min               =  -6.3991984364244E+01
(PID.TID 0000.0001) %MON exf_swflux_mean              =  -2.6463755238823E+01
(PID.TID 0000.0001) %MON exf_swflux_sd                =   1.9629736696482E+01
(PID.TID 0000.0001) %MON exf_swflux_del2              =   8.9598199762134E-02
(PID.TID 0000.0001) %MON exf_swdown_max               =   7.1102204849160E+01
(PID.TID 0000.0001) %MON exf_swdown_min               =   9.0228931499961E-02
(PID.TID 0000.0001) %MON exf_swdown_mean              =   2.9404172487581E+01
(PID.TID 0000.0001) %MON exf_swdown_sd                =   2.1810818551646E+01
(PID.TID 0000.0001) %MON exf_swdown_del2              =   9.9553555291260E-02
(PID.TID 0000.0001) %MON exf_lwdown_max               =   3.0567089193375E+02
(PID.TID 0000.0001) %MON exf_lwdown_min               =   1.1598258522951E+02
(PID.TID 0000.0001) %MON exf_lwdown_mean              =   2.2593360963007E+02
(PID.TID 0000.0001) %MON exf_lwdown_sd                =   4.6281398610271E+01
(PID.TID 0000.0001) %MON exf_lwdown_del2              =   9.0887479063000E-01
(PID.TID 0000.0001) %MON exf_climsss_max              =   3.5040515633880E+01
(PID.TID 0000.0001) %MON exf_climsss_min              =   3.0667072499385E+01
(PID.TID 0000.0001) %MON exf_climsss_mean             =   3.3459840934468E+01
(PID.TID 0000.0001) %MON exf_climsss_sd               =   1.0318832207269E+00
(PID.TID 0000.0001) %MON exf_climsss_del2             =   2.6974851931992E-02
(PID.TID 0000.0001) // =======================================================
(PID.TID 0000.0001) // End MONITOR EXF statistics
(PID.TID 0000.0001) // =======================================================
DEBUG_STATS_RL: Uice pre  iter (SEAICE_LSR  1)  min= -1.15942749827435E-03
DEBUG_STATS_RL: Uice pre  iter (SEAICE_LSR  1)  max=  1.20418167656252E-02
DEBUG_STATS_RL: Uice pre  iter (SEAICE_LSR  1) mean=  2.64506216410235E-03
DEBUG_STATS_RL: Uice pre  iter (SEAICE_LSR  1) S.D.=  3.13774756817759E-03
DEBUG_STATS_RL: Vice pre  iter (SEAICE_LSR  1)  min= -5.99336397479914E-03
DEBUG_STATS_RL: Vice pre  iter (SEAICE_LSR  1)  max=  4.08760906980194E-03
DEBUG_STATS_RL: Vice pre  iter (SEAICE_LSR  1) mean= -1.18494610218030E-03
DEBUG_STATS_RL: Vice pre  iter (SEAICE_LSR  1) S.D.=  2.51572614879252E-03
DEBUG_STATS_RL: Uice pre  iter (SEAICE_LSR  2)  min= -1.66461661595648E-03
DEBUG_STATS_RL: Uice pre  iter (SEAICE_LSR  2)  max=  2.05817158221004E-01
DEBUG_STATS_RL: Uice pre  iter (SEAICE_LSR  2) mean=  2.18937658776677E-02
DEBUG_STATS_RL: Uice pre  iter (SEAICE_LSR  2) S.D.=  4.15140060700888E-02
DEBUG_STATS_RL: Vice pre  iter (SEAICE_LSR  2)  min= -1.15170217244308E-02
DEBUG_STATS_RL: Vice pre  iter (SEAICE_LSR  2)  max=  6.02623623339015E-02
DEBUG_STATS_RL: Vice pre  iter (SEAICE_LSR  2) mean= -5.88552864146919E-04
DEBUG_STATS_RL: Vice pre  iter (SEAICE_LSR  2) S.D.=  1.21471679479680E-02
DEBUG_STATS_RL:                EtaN (DYNAMICS)  min= -7.91800933896177E-02
DEBUG_STATS_RL:                EtaN (DYNAMICS)  max=  2.06357890624784E-01
DEBUG_STATS_RL:                EtaN (DYNAMICS) mean= -8.74156541733471E-04
DEBUG_STATS_RL:                EtaN (DYNAMICS) S.D.=  4.22657013639480E-02
DEBUG_STATS_RL:                Uvel (DYNAMICS)  min= -1.97613285723242E-02
DEBUG_STATS_RL:                Uvel (DYNAMICS)  max=  1.31897193240012E-02
DEBUG_STATS_RL:                Uvel (DYNAMICS) mean= -7.76915115649382E-04
DEBUG_STATS_RL:                Uvel (DYNAMICS) S.D.=  3.97168834923499E-03
DEBUG_STATS_RL:                Vvel (DYNAMICS)  min= -1.13773235335529E-02
DEBUG_STATS_RL:                Vvel (DYNAMICS)  max=  2.04284639774261E-02
DEBUG_STATS_RL:                Vvel (DYNAMICS) mean=  7.24190880687442E-04
DEBUG_STATS_RL:                Vvel (DYNAMICS) S.D.=  4.28907995073846E-03
DEBUG_STATS_RL:                Wvel (DYNAMICS)  min= -4.27131465138430E-05
DEBUG_STATS_RL:                Wvel (DYNAMICS)  max=  1.16530364658749E-04
DEBUG_STATS_RL:                Wvel (DYNAMICS) mean= -4.07763417598552E-07
DEBUG_STATS_RL:                Wvel (DYNAMICS) S.D.=  1.80149904412009E-05
DEBUG_STATS_RL:               Theta (DYNAMICS)  min= -1.41019615972461E+00
DEBUG_STATS_RL:               Theta (DYNAMICS)  max=  1.32440592110212E+01
DEBUG_STATS_RL:               Theta (DYNAMICS) mean=  2.49735783552472E+00
DEBUG_STATS_RL:               Theta (DYNAMICS) S.D.=  2.45807980529386E+00
DEBUG_STATS_RL:                Salt (DYNAMICS)  min=  2.76560994014067E+01
DEBUG_STATS_RL:                Salt (DYNAMICS)  max=  3.54507778736995E+01
DEBUG_STATS_RL:                Salt (DYNAMICS) mean=  3.39623217189232E+01
DEBUG_STATS_RL:                Salt (DYNAMICS) S.D.=  1.10108958710508E+00
DEBUG_STATS_RL:                  Gu (DYNAMICS)  min= -2.89112950168885E-02
DEBUG_STATS_RL:                  Gu (DYNAMICS)  max=  3.25741619058367E-02
DEBUG_STATS_RL:                  Gu (DYNAMICS) mean= -2.32520622241718E-03
DEBUG_STATS_RL:                  Gu (DYNAMICS) S.D.=  7.09155735785359E-03
DEBUG_STATS_RL:                  Gv (DYNAMICS)  min= -3.71241625510621E-02
DEBUG_STATS_RL:                  Gv (DYNAMICS)  max=  1.83230442031147E-02
DEBUG_STATS_RL:                  Gv (DYNAMICS) mean= -1.89259208721432E-03
DEBUG_STATS_RL:                  Gv (DYNAMICS) S.D.=  7.31046974976020E-03
DEBUG_STATS_RL:               GuNm1 (DYNAMICS)  min= -1.80289983389196E-07
DEBUG_STATS_RL:               GuNm1 (DYNAMICS)  max=  1.49251399870334E-07
DEBUG_STATS_RL:               GuNm1 (DYNAMICS) mean=  3.41794292088730E-09
DEBUG_STATS_RL:               GuNm1 (DYNAMICS) S.D.=  3.19693794884499E-08
DEBUG_STATS_RL:               GvNm1 (DYNAMICS)  min= -5.11118133734402E-08
DEBUG_STATS_RL:               GvNm1 (DYNAMICS)  max=  4.88281454922596E-08
DEBUG_STATS_RL:               GvNm1 (DYNAMICS) mean= -4.70245831256227E-11
DEBUG_STATS_RL:               GvNm1 (DYNAMICS) S.D.=  1.42003013108260E-08
DEBUG_STATS_RL:               GtNm1 (DYNAMICS)  min=  0.00000000000000E+00
DEBUG_STATS_RL:               GtNm1 (DYNAMICS)  max=  0.00000000000000E+00
DEBUG_STATS_RL:               GtNm1 (DYNAMICS) mean=  0.00000000000000E+00
DEBUG_STATS_RL:               GtNm1 (DYNAMICS) S.D.=  0.00000000000000E+00
DEBUG_STATS_RL:               GsNm1 (DYNAMICS)  min=  0.00000000000000E+00
DEBUG_STATS_RL:               GsNm1 (DYNAMICS)  max=  0.00000000000000E+00
DEBUG_STATS_RL:               GsNm1 (DYNAMICS) mean=  0.00000000000000E+00
DEBUG_STATS_RL:               GsNm1 (DYNAMICS) S.D.=  0.00000000000000E+00
DEBUG_STATS_RL:    cg2d_b (SOLVE_FOR_PRESSURE)  min= -7.40048897093643E+03
DEBUG_STATS_RL:    cg2d_b (SOLVE_FOR_PRESSURE)  max=  2.33428667016753E+03
DEBUG_STATS_RL:    cg2d_b (SOLVE_FOR_PRESSURE) mean=  5.15380331004659E-14
DEBUG_STATS_RL:    cg2d_b (SOLVE_FOR_PRESSURE) S.D.=  9.39768538610364E+02
 cg2d: Sum(rhs),rhsMax =   1.53002610581154E-15  1.19110424780756E+00
DEBUG_STATS_RL:    cg2d_x (SOLVE_FOR_PRESSURE)  min= -1.25977767814675E+00
DEBUG_STATS_RL:    cg2d_x (SOLVE_FOR_PRESSURE)  max=  2.83276936769467E+00
DEBUG_STATS_RL:    cg2d_x (SOLVE_FOR_PRESSURE) mean= -1.56118539430791E-02
DEBUG_STATS_RL:    cg2d_x (SOLVE_FOR_PRESSURE) S.D.=  6.63083405130026E-01
(PID.TID 0000.0001)      cg2d_init_res =   3.33856825620926E-01
(PID.TID 0000.0001)      cg2d_iters(min,last) =      -1      45
(PID.TID 0000.0001)      cg2d_last_res =   6.10549805196386E-14
DEBUG_STATS_RL:          Uvel (THERMODYNAMICS)  min= -4.02432897586652E-02
DEBUG_STATS_RL:          Uvel (THERMODYNAMICS)  max=  3.23458159885820E-02
DEBUG_STATS_RL:          Uvel (THERMODYNAMICS) mean=  6.75465330206794E-04
DEBUG_STATS_RL:          Uvel (THERMODYNAMICS) S.D.=  7.33761384667267E-03
DEBUG_STATS_RL:          Vvel (THERMODYNAMICS)  min= -1.64862319058740E-02
DEBUG_STATS_RL:          Vvel (THERMODYNAMICS)  max=  4.21759382970963E-02
DEBUG_STATS_RL:          Vvel (THERMODYNAMICS) mean=  1.82858022907397E-03
DEBUG_STATS_RL:          Vvel (THERMODYNAMICS) S.D.=  8.08424055894123E-03
DEBUG_STATS_RL:          Wvel (THERMODYNAMICS)  min= -6.56490529174610E-05
DEBUG_STATS_RL:          Wvel (THERMODYNAMICS)  max=  1.68683217295647E-04
DEBUG_STATS_RL:          Wvel (THERMODYNAMICS) mean= -4.30739495112636E-07
DEBUG_STATS_RL:          Wvel (THERMODYNAMICS) S.D.=  1.89945067258204E-05
DEBUG_STATS_RL:         Theta (THERMODYNAMICS)  min= -1.83156742552816E+00
DEBUG_STATS_RL:         Theta (THERMODYNAMICS)  max=  1.32606612249659E+01
DEBUG_STATS_RL:         Theta (THERMODYNAMICS) mean=  2.43057765558689E+00
DEBUG_STATS_RL:         Theta (THERMODYNAMICS) S.D.=  2.55246643542934E+00
DEBUG_STATS_RL:          Salt (THERMODYNAMICS)  min=  2.76092906345221E+01
DEBUG_STATS_RL:          Salt (THERMODYNAMICS)  max=  3.54509236522671E+01
DEBUG_STATS_RL:          Salt (THERMODYNAMICS) mean=  3.39413044254433E+01
DEBUG_STATS_RL:          Salt (THERMODYNAMICS) S.D.=  1.14495872836586E+00
DEBUG_STATS_RL:         GtNm1 (THERMODYNAMICS)  min=  0.00000000000000E+00
DEBUG_STATS_RL:         GtNm1 (THERMODYNAMICS)  max=  0.00000000000000E+00
DEBUG_STATS_RL:         GtNm1 (THERMODYNAMICS) mean=  0.00000000000000E+00
DEBUG_STATS_RL:         GtNm1 (THERMODYNAMICS) S.D.=  0.00000000000000E+00
DEBUG_STATS_RL:         GsNm1 (THERMODYNAMICS)  min=  0.00000000000000E+00
DEBUG_STATS_RL:         GsNm1 (THERMODYNAMICS)  max=  0.00000000000000E+00
DEBUG_STATS_RL:         GsNm1 (THERMODYNAMICS) mean=  0.00000000000000E+00
DEBUG_STATS_RL:         GsNm1 (THERMODYNAMICS) S.D.=  0.00000000000000E+00
(PID.TID 0000.0001) // =======================================================
(PID.TID 0000.0001) // Begin MONITOR dynamic field statistics
(PID.TID 0000.0001) // =======================================================
(PID.TID 0000.0001) %MON time_tsnumber                =                     2
(PID.TID 0000.0001) %MON time_secondsf                =   7.2000000000000E+03
(PID.TID 0000.0001) %MON dynstat_eta_max              =   2.8859869673730E-01
(PID.TID 0000.0001) %MON dynstat_eta_min              =  -1.2834443927490E-01
(PID.TID 0000.0001) %MON dynstat_eta_mean             =  -2.3590035632945E-16
(PID.TID 0000.0001) %MON dynstat_eta_sd               =   7.4578635972260E-02
(PID.TID 0000.0001) %MON dynstat_eta_del2             =   2.3372908345798E-03
(PID.TID 0000.0001) %MON dynstat_uvel_max             =   3.2345815988582E-02
(PID.TID 0000.0001) %MON dynstat_uvel_min             =  -4.0243289758665E-02
(PID.TID 0000.0001) %MON dynstat_uvel_mean            =  -7.7161347776102E-04
(PID.TID 0000.0001) %MON dynstat_uvel_sd              =   4.4559519159783E-03
(PID.TID 0000.0001) %MON dynstat_uvel_del2            =   2.2553690377799E-04
(PID.TID 0000.0001) %MON dynstat_vvel_max             =   4.2175938297096E-02
(PID.TID 0000.0001) %MON dynstat_vvel_min             =  -1.6486231905874E-02
(PID.TID 0000.0001) %MON dynstat_vvel_mean            =  -1.4847824166857E-03
(PID.TID 0000.0001) %MON dynstat_vvel_sd              =   6.8135219280666E-03
(PID.TID 0000.0001) %MON dynstat_vvel_del2            =   1.6589127821610E-04
(PID.TID 0000.0001) %MON dynstat_wvel_max             =   1.6868321729565E-04
(PID.TID 0000.0001) %MON dynstat_wvel_min             =  -6.5649052917461E-05
(PID.TID 0000.0001) %MON dynstat_wvel_mean            =  -9.8860024140455E-23
(PID.TID 0000.0001) %MON dynstat_wvel_sd              =   3.1157411615976E-05
(PID.TID 0000.0001) %MON dynstat_wvel_del2            =   5.4553506088956E-07
(PID.TID 0000.0001) %MON dynstat_theta_max            =   1.3260661224966E+01
(PID.TID 0000.0001) %MON dynstat_theta_min            =  -1.8315674255282E+00
(PID.TID 0000.0001) %MON dynstat_theta_mean           =   3.0744367839616E+00
(PID.TID 0000.0001) %MON dynstat_theta_sd             =   1.4246110677851E+00
(PID.TID 0000.0001) %MON dynstat_theta_del2           =   9.8795718817569E-03
(PID.TID 0000.0001) %MON dynstat_salt_max             =   3.5450923652267E+01
(PID.TID 0000.0001) %MON dynstat_salt_min             =   2.7609290634522E+01
(PID.TID 0000.0001) %MON dynstat_salt_mean            =   3.4746539550731E+01
(PID.TID 0000.0001) %MON dynstat_salt_sd              =   5.1057065624512E-01
(PID.TID 0000.0001) %MON dynstat_salt_del2            =   3.6665003654769E-03
(PID.TID 0000.0001) %MON dynstat_sst_max              =   5.4478033103333E+00
(PID.TID 0000.0001) %MON dynstat_sst_min              =  -1.8315674255282E+00
(PID.TID 0000.0001) %MON dynstat_sst_mean             =  -1.0822967519309E+00
(PID.TID 0000.0001) %MON dynstat_sst_sd               =   1.3531683877807E+00
(PID.TID 0000.0001) %MON dynstat_sst_del2             =   3.0816956063230E-02
(PID.TID 0000.0001) %MON dynstat_sss_max              =   3.2688665076047E+01
(PID.TID 0000.0001) %MON dynstat_sss_min              =   2.7609290634522E+01
(PID.TID 0000.0001) %MON dynstat_sss_mean             =   3.1270940842181E+01
(PID.TID 0000.0001) %MON dynstat_sss_sd               =   1.1714989060754E+00
(PID.TID 0000.0001) %MON dynstat_sss_del2             =   2.2464114587173E-02
(PID.TID 0000.0001) %MON forcing_qnet_max             =   2.1573266971960E+04
(PID.TID 0000.0001) %MON forcing_qnet_min             =  -4.9105797163422E+01
(PID.TID 0000.0001) %MON forcing_qnet_mean            =   9.2443201199937E+03
(PID.TID 0000.0001) %MON forcing_qnet_sd              =   4.7502412783066E+03
(PID.TID 0000.0001) %MON forcing_qnet_del2            =   2.7846996075947E+02
(PID.TID 0000.0001) %MON forcing_qsw_max              =   0.0000000000000E+00
(PID.TID 0000.0001) %MON forcing_qsw_min              =  -6.3991984364244E+01
(PID.TID 0000.0001) %MON forcing_qsw_mean             =  -5.7626904902453E+00
(PID.TID 0000.0001) %MON forcing_qsw_sd               =   1.6010569272998E+01
(PID.TID 0000.0001) %MON forcing_qsw_del2             =   1.1743806788200E+00
(PID.TID 0000.0001) %MON forcing_empmr_max            =  -2.3159189365785E-05
(PID.TID 0000.0001) %MON forcing_empmr_min            =  -6.4528205487293E-02
(PID.TID 0000.0001) %MON forcing_empmr_mean           =  -2.7654195259840E-02
(PID.TID 0000.0001) %MON forcing_empmr_sd             =   1.4201250439752E-02
(PID.TID 0000.0001) %MON forcing_empmr_del2           =   8.3336151339615E-04
(PID.TID 0000.0001) %MON forcing_fu_max               =   7.6566167228618E-02
(PID.TID 0000.0001) %MON forcing_fu_min               =  -2.4036403419306E-03
(PID.TID 0000.0001) %MON forcing_fu_mean              =   1.6804930271189E-02
(PID.TID 0000.0001) %MON forcing_fu_sd                =   1.9759180943592E-02
(PID.TID 0000.0001) %MON forcing_fu_del2              =   7.1838683785634E-04
(PID.TID 0000.0001) %MON forcing_fv_max               =   1.0584773571820E-02
(PID.TID 0000.0001) %MON forcing_fv_min               =  -9.2422720603602E-03
(PID.TID 0000.0001) %MON forcing_fv_mean              =  -1.4472383740551E-03
(PID.TID 0000.0001) %MON forcing_fv_sd                =   4.5505009901087E-03
(PID.TID 0000.0001) %MON forcing_fv_del2              =   1.7067479804802E-04
(PID.TID 0000.0001) %MON trAdv_CFL_u_max              =   9.5525589601689E-04
(PID.TID 0000.0001) %MON trAdv_CFL_v_max              =   6.6988753954248E-04
(PID.TID 0000.0001) %MON trAdv_CFL_w_max              =   8.8071472352673E-03
(PID.TID 0000.0001) %MON advcfl_uvel_max              =   9.5520739882451E-04
(PID.TID 0000.0001) %MON advcfl_vvel_max              =   6.8273518608853E-04
(PID.TID 0000.0001) %MON advcfl_wvel_max              =   1.6448161222502E-02
(PID.TID 0000.0001) %MON advcfl_W_hf_max              =   9.7569742292138E-03
(PID.TID 0000.0001) %MON pe_b_mean                    =   1.8335878112930E-05
(PID.TID 0000.0001) %MON ke_max                       =   8.0707950324598E-04
(PID.TID 0000.0001) %MON ke_mean                      =   2.7008830117033E-05
(PID.TID 0000.0001) %MON ke_vol                       =   5.3036189546438E+15
(PID.TID 0000.0001) %MON vort_r_min                   =  -2.8343986917242E-07
(PID.TID 0000.0001) %MON vort_r_max                   =   1.7945189516789E-07
(PID.TID 0000.0001) %MON vort_a_mean                  =   1.2067277951547E-04
(PID.TID 0000.0001) %MON vort_a_sd                    =   8.8107579630901E-06
(PID.TID 0000.0001) %MON vort_p_mean                  =   1.7734843682584E-04
(PID.TID 0000.0001) %MON vort_p_sd                    =   1.1691469832117E-04
(PID.TID 0000.0001) %MON surfExpan_theta_mean         =   4.7635327662724E-06
(PID.TID 0000.0001) %MON surfExpan_salt_mean          =  -3.6373250317890E-06
(PID.TID 0000.0001) // =======================================================
(PID.TID 0000.0001) // End MONITOR dynamic field statistics
(PID.TID 0000.0001) // =======================================================
(PID.TID 0000.0001) // =======================================================
(PID.TID 0000.0001) // Begin MONITOR SEAICE statistics
(PID.TID 0000.0001) // =======================================================
(PID.TID 0000.0001) %MON seaice_tsnumber              =                     2
(PID.TID 0000.0001) %MON seaice_time_sec              =   7.2000000000000E+03
(PID.TID 0000.0001) %MON seaice_uice_max              =   1.8482188836361E-01
(PID.TID 0000.0001) %MON seaice_uice_min              =  -2.7259091119036E-03
(PID.TID 0000.0001) %MON seaice_uice_mean             =   5.7159198768224E-02
(PID.TID 0000.0001) %MON seaice_uice_sd               =   5.8267189850347E-02
(PID.TID 0000.0001) %MON seaice_uice_del2             =   2.3647341966695E-03
(PID.TID 0000.0001) %MON seaice_vice_max              =   6.2586661867235E-02
(PID.TID 0000.0001) %MON seaice_vice_min              =  -3.1698720912149E-02
(PID.TID 0000.0001) %MON seaice_vice_mean             =  -4.8738587223236E-03
(PID.TID 0000.0001) %MON seaice_vice_sd               =   1.9699505154293E-02
(PID.TID 0000.0001) %MON seaice_vice_del2             =   7.1965751401313E-04
(PID.TID 0000.0001) %MON seaice_area_max              =   1.0000000000000E+00
(PID.TID 0000.0001) %MON seaice_area_min              =   0.0000000000000E+00
(PID.TID 0000.0001) %MON seaice_area_mean             =   7.0982368696800E-01
(PID.TID 0000.0001) %MON seaice_area_sd               =   4.5366699553514E-01
(PID.TID 0000.0001) %MON seaice_area_del2             =   3.2657734096547E-02
(PID.TID 0000.0001) %MON seaice_heff_max              =   5.8894874001171E-01
(PID.TID 0000.0001) %MON seaice_heff_min              =   0.0000000000000E+00
(PID.TID 0000.0001) %MON seaice_heff_mean             =   1.9760523052151E-01
(PID.TID 0000.0001) %MON seaice_heff_sd               =   1.8921627942467E-01
(PID.TID 0000.0001) %MON seaice_heff_del2             =   3.6496764878803E-03
(PID.TID 0000.0001) %MON seaice_hsnow_max             =   2.0023561890306E-01
(PID.TID 0000.0001) %MON seaice_hsnow_min             =   0.0000000000000E+00
(PID.TID 0000.0001) %MON seaice_hsnow_mean            =   7.0012849768953E-02
(PID.TID 0000.0001) %MON seaice_hsnow_sd              =   6.6991633337661E-02
(PID.TID 0000.0001) %MON seaice_hsnow_del2            =   1.2920013502921E-03
(PID.TID 0000.0001) %MON seaice_hsalt_max             =   5.1951617307263E+03
(PID.TID 0000.0001) %MON seaice_hsalt_min             =  -1.1368683772162E-13
(PID.TID 0000.0001) %MON seaice_hsalt_mean            =   1.6198570184140E+03
(PID.TID 0000.0001) %MON seaice_hsalt_sd              =   1.6616437910607E+03
(PID.TID 0000.0001) %MON seaice_hsalt_del2            =   3.4260125404938E+01
(PID.TID 0000.0001) // =======================================================
(PID.TID 0000.0001) // End MONITOR SEAICE statistics
(PID.TID 0000.0001) // =======================================================
 Computing Diagnostic #     23  ETAN         Counter:       1   Parms: SM      M1      
(PID.TID 0000.0001)  MDS_WRITE_FIELD: it,rec,kS,kL,kH=       2    -1  46   1   1 file=diags/state_2d_set1.0000000002
 Computing Diagnostic #    294  SIarea       Counter:       1   Parms: SM      M1      
(PID.TID 0000.0001)  MDS_WRITE_FIELD: it,rec,kS,kL,kH=       2    -2  46   1   1 file=diags/state_2d_set1.0000000002
 Computing Diagnostic #    297  SIheff       Counter:       1   Parms: SM      M1      
(PID.TID 0000.0001)  MDS_WRITE_FIELD: it,rec,kS,kL,kH=       2    -3  46   1   1 file=diags/state_2d_set1.0000000002
 Computing Diagnostic #    299  SIhsnow      Counter:       1   Parms: SM      M1      
(PID.TID 0000.0001)  MDS_WRITE_FIELD: it,rec,kS,kL,kH=       2    -4  46   1   1 file=diags/state_2d_set1.0000000002
 Computing Diagnostic #     25  DETADT2      Counter:       1   Parms: SM      M1      
(PID.TID 0000.0001)  MDS_WRITE_FIELD: it,rec,kS,kL,kH=       2    -5  46   1   1 file=diags/state_2d_set1.0000000002
 Computing Diagnostic #     73  PHIBOT       Counter:       1   Parms: SM      M1      
(PID.TID 0000.0001)  MDS_WRITE_FIELD: it,rec,kS,kL,kH=       2    -6  46   1   1 file=diags/state_2d_set1.0000000002
 Computing Diagnostic #     82  sIceLoad     Counter:       1   Parms: SM      U1      
(PID.TID 0000.0001)  MDS_WRITE_FIELD: it,rec,kS,kL,kH=       2    -7  46   1   1 file=diags/state_2d_set1.0000000002
 Computing Diagnostic #     76  MXLDEPTH     Counter:       1   Parms: SM      M1      
(PID.TID 0000.0001)  MDS_WRITE_FIELD: it,rec,kS,kL,kH=       2    -8  46   1   1 file=diags/state_2d_set1.0000000002
 Computing Diagnostic #    325  SIatmFW      Counter:       1   Parms: SM      U1      
(PID.TID 0000.0001)  MDS_WRITE_FIELD: it,rec,kS,kL,kH=       2    -9  46   1   1 file=diags/state_2d_set1.0000000002
 Computing Diagnostic #     85  oceQnet      Counter:       1   Parms: SM      U1      
(PID.TID 0000.0001)  MDS_WRITE_FIELD: it,rec,kS,kL,kH=       2   -10  46   1   1 file=diags/state_2d_set1.0000000002
 Computing Diagnostic #     83  oceFWflx     Counter:       1   Parms: SM      U1      
(PID.TID 0000.0001)  MDS_WRITE_FIELD: it,rec,kS,kL,kH=       2   -11  46   1   1 file=diags/state_2d_set1.0000000002
 Computing Diagnostic #     79  oceTAUX      Counter:       1   Parms: UU      U1      
           Vector  Mate for  oceTAUX      Diagnostic #     80  oceTAUY  exists 
(PID.TID 0000.0001)  MDS_WRITE_FIELD: it,rec,kS,kL,kH=       2   -12  46   1   1 file=diags/state_2d_set1.0000000002
 Computing Diagnostic #     80  oceTAUY      Counter:       1   Parms: VV      U1      
           Vector  Mate for  oceTAUY      Diagnostic #     79  oceTAUX  exists 
(PID.TID 0000.0001)  MDS_WRITE_FIELD: it,rec,kS,kL,kH=       2   -13  46   1   1 file=diags/state_2d_set1.0000000002
 Computing Diagnostic #    311  SIuice       Counter:       1   Parms: UU      M1      
           Vector  Mate for  SIuice       Diagnostic #    312  SIvice   exists 
(PID.TID 0000.0001)  MDS_WRITE_FIELD: it,rec,kS,kL,kH=       2   -14  46   1   1 file=diags/state_2d_set1.0000000002
 Computing Diagnostic #    312  SIvice       Counter:       1   Parms: VV      M1      
           Vector  Mate for  SIvice       Diagnostic #    311  SIuice   exists 
(PID.TID 0000.0001)  MDS_WRITE_FIELD: it,rec,kS,kL,kH=       2   -15  46   1   1 file=diags/state_2d_set1.0000000002
 Computing Diagnostic #     24  ETANSQ       Counter:       1   Parms: SM P    M1      
(PID.TID 0000.0001)  MDS_WRITE_FIELD: it,rec,kS,kL,kH=       2   -16  46   1   1 file=diags/state_2d_set1.0000000002
 Computing Diagnostic #     26  THETA        Counter:       1   Parms: SMR     MR      
(PID.TID 0000.0001)  MDS_WRITE_FIELD: it,rec,kS,kL,kH=       2    -1  46   1  23 file=diags/state_3d_set1.0000000002
 Computing Diagnostic #     27  SALT         Counter:       1   Parms: SMR     MR      
(PID.TID 0000.0001)  MDS_WRITE_FIELD: it,rec,kS,kL,kH=       2    -2  46   1  23 file=diags/state_3d_set1.0000000002
 Computing Diagnostic #     45  UVELMASS     Counter:       1   Parms: UUr     MR      
           Vector  Mate for  UVELMASS     Diagnostic #     46  VVELMASS exists 
(PID.TID 0000.0001)  MDS_WRITE_FIELD: it,rec,kS,kL,kH=       2    -1  46   1  23 file=diags/trsp_3d_set1.0000000002
 Computing Diagnostic #     46  VVELMASS     Counter:       1   Parms: VVr     MR      
           Vector  Mate for  VVELMASS     Diagnostic #     45  UVELMASS exists 
(PID.TID 0000.0001)  MDS_WRITE_FIELD: it,rec,kS,kL,kH=       2    -2  46   1  23 file=diags/trsp_3d_set1.0000000002
 Computing Diagnostic #    224  EXFpreci     Counter:       1   Parms: SM      U1      
(PID.TID 0000.0001)  MDS_WRITE_FIELD: it,rec,kS,kL,kH=       2    -1  46   1   1 file=diags/exf_zflux_set1.0000000002
 Computing Diagnostic #    223  EXFevap      Counter:       1   Parms: SM      U1      
(PID.TID 0000.0001)  MDS_WRITE_FIELD: it,rec,kS,kL,kH=       2    -2  46   1   1 file=diags/exf_zflux_set1.0000000002
 Computing Diagnostic #    228  EXFroff      Counter:       1   Parms: SM      U1      
(PID.TID 0000.0001)  MDS_WRITE_FIELD: it,rec,kS,kL,kH=       2    -3  46   1   1 file=diags/exf_zflux_set1.0000000002
 Computing Diagnostic #    226  EXFempmr     Counter:       1   Parms: SM      U1      
(PID.TID 0000.0001)  MDS_WRITE_FIELD: it,rec,kS,kL,kH=       2    -4  46   1   1 file=diags/exf_zflux_set1.0000000002
 Computing Diagnostic #    212  EXFswdn      Counter:       1   Parms: SM      U1      
(PID.TID 0000.0001)  MDS_WRITE_FIELD: it,rec,kS,kL,kH=       2    -5  46   1   1 file=diags/exf_zflux_set1.0000000002
 Computing Diagnostic #    211  EXFlwdn      Counter:       1   Parms: SM      U1      
(PID.TID 0000.0001)  MDS_WRITE_FIELD: it,rec,kS,kL,kH=       2    -6  46   1   1 file=diags/exf_zflux_set1.0000000002
 Computing Diagnostic #    210  EXFswnet     Counter:       1   Parms: SM      U1      
(PID.TID 0000.0001)  MDS_WRITE_FIELD: it,rec,kS,kL,kH=       2    -7  46   1   1 file=diags/exf_zflux_set1.0000000002
 Computing Diagnostic #    209  EXFlwnet     Counter:       1   Parms: SM      U1      
(PID.TID 0000.0001)  MDS_WRITE_FIELD: it,rec,kS,kL,kH=       2    -8  46   1   1 file=diags/exf_zflux_set1.0000000002
 Computing Diagnostic #    213  EXFqnet      Counter:       1   Parms: SM      U1      
(PID.TID 0000.0001)  MDS_WRITE_FIELD: it,rec,kS,kL,kH=       2    -9  46   1   1 file=diags/exf_zflux_set1.0000000002
 Computing Diagnostic #    221  EXFatemp     Counter:       1   Parms: SM      U1      
(PID.TID 0000.0001)  MDS_WRITE_FIELD: it,rec,kS,kL,kH=       2   -10  46   1   1 file=diags/exf_zflux_set1.0000000002
 Computing Diagnostic #    222  EXFaqh       Counter:       1   Parms: SM      U1      
(PID.TID 0000.0001)  MDS_WRITE_FIELD: it,rec,kS,kL,kH=       2   -11  46   1   1 file=diags/exf_zflux_set1.0000000002
 Computing Diagnostic #    214  EXFtaux      Counter:       1   Parms: UM      U1      
(PID.TID 0000.0001)  MDS_WRITE_FIELD: it,rec,kS,kL,kH=       2   -12  46   1   1 file=diags/exf_zflux_set1.0000000002
 Computing Diagnostic #    215  EXFtauy      Counter:       1   Parms: VM      U1      
(PID.TID 0000.0001)  MDS_WRITE_FIELD: it,rec,kS,kL,kH=       2   -13  46   1   1 file=diags/exf_zflux_set1.0000000002
 Computing Diagnostic #    216  EXFuwind     Counter:       1   Parms: UM      U1      
(PID.TID 0000.0001)  MDS_WRITE_FIELD: it,rec,kS,kL,kH=       2   -14  46   1   1 file=diags/exf_zflux_set1.0000000002
 Computing Diagnostic #    217  EXFvwind     Counter:       1   Parms: VM      U1      
(PID.TID 0000.0001)  MDS_WRITE_FIELD: it,rec,kS,kL,kH=       2   -15  46   1   1 file=diags/exf_zflux_set1.0000000002
 Computing Diagnostic #    227  EXFpress     Counter:       1   Parms: SM      U1      
(PID.TID 0000.0001)  MDS_WRITE_FIELD: it,rec,kS,kL,kH=       2   -16  46   1   1 file=diags/exf_zflux_set1.0000000002
 Computing Diagnostic #    207  EXFhs        Counter:       1   Parms: SM      U1      
(PID.TID 0000.0001)  MDS_WRITE_FIELD: it,rec,kS,kL,kH=       2   -17  46   1   1 file=diags/exf_zflux_set1.0000000002
 Computing Diagnostic #    208  EXFhl        Counter:       1   Parms: SM      U1      
(PID.TID 0000.0001)  MDS_WRITE_FIELD: it,rec,kS,kL,kH=       2   -18  46   1   1 file=diags/exf_zflux_set1.0000000002
(PID.TID 0000.0001)  write diagnostics summary to file: diagnostics_status.0000000002.txt
(PID.TID 0000.0001)  MDS_WRITE_FIELD: it,rec,kS,kL,kH=       2     1  23   1  23 file=pickup_cd.0000000002
(PID.TID 0000.0001)  MDS_WRITE_FIELD: it,rec,kS,kL,kH=       2     2  23   1  23 file=pickup_cd.0000000002
(PID.TID 0000.0001)  MDS_WRITE_FIELD: it,rec,kS,kL,kH=       2     3  23   1  23 file=pickup_cd.0000000002
(PID.TID 0000.0001)  MDS_WRITE_FIELD: it,rec,kS,kL,kH=       2     4  23   1  23 file=pickup_cd.0000000002
(PID.TID 0000.0001)  MDS_WRITE_FIELD: it,rec,kS,kL,kH=       2    93   1   1   1 file=pickup_cd.0000000002
(PID.TID 0000.0001)  MDS_WRITE_FIELD: it,rec,kS,kL,kH=       2    -1   7   1   7 file=pickup_seaice.0000000002
(PID.TID 0000.0001)  MDS_WRITE_FIELD: it,rec,kS,kL,kH=       2    -8   1   1   1 file=pickup_seaice.0000000002
(PID.TID 0000.0001)  MDS_WRITE_FIELD: it,rec,kS,kL,kH=       2    -9   1   1   1 file=pickup_seaice.0000000002
(PID.TID 0000.0001)  MDS_WRITE_FIELD: it,rec,kS,kL,kH=       2   -10   1   1   1 file=pickup_seaice.0000000002
(PID.TID 0000.0001)  MDS_WRITE_FIELD: it,rec,kS,kL,kH=       2   -11   1   1   1 file=pickup_seaice.0000000002
(PID.TID 0000.0001)  MDS_WRITE_FIELD: it,rec,kS,kL,kH=       2   -12   1   1   1 file=pickup_seaice.0000000002
(PID.TID 0000.0001)  MDS_WRITE_FIELD: it,rec,kS,kL,kH=       2   -13   1   1   1 file=pickup_seaice.0000000002
(PID.TID 0000.0001)  MDS_WRITE_FIELD: it,rec,kS,kL,kH=       2    -1  23   1  23 file=pickup.0000000002
(PID.TID 0000.0001)  MDS_WRITE_FIELD: it,rec,kS,kL,kH=       2    -2  23   1  23 file=pickup.0000000002
(PID.TID 0000.0001)  MDS_WRITE_FIELD: it,rec,kS,kL,kH=       2    -3  23   1  23 file=pickup.0000000002
(PID.TID 0000.0001)  MDS_WRITE_FIELD: it,rec,kS,kL,kH=       2    -4  23   1  23 file=pickup.0000000002
(PID.TID 0000.0001)  MDS_WRITE_FIELD: it,rec,kS,kL,kH=       2    -5  23   1  23 file=pickup.0000000002
(PID.TID 0000.0001)  MDS_WRITE_FIELD: it,rec,kS,kL,kH=       2    -6  23   1  23 file=pickup.0000000002
(PID.TID 0000.0001)  MDS_WRITE_FIELD: it,rec,kS,kL,kH=       2  -139   1   1   1 file=pickup.0000000002
(PID.TID 0000.0001)  MDS_WRITE_FIELD: it,rec,kS,kL,kH=       2  -140   1   1   1 file=pickup.0000000002
(PID.TID 0000.0001)  MDS_WRITE_FIELD: it,rec,kS,kL,kH=       2  -141   1   1   1 file=pickup.0000000002
(PID.TID 0000.0001) %CHECKPOINT         2 0000000002
(PID.TID 0000.0001)  MDS_WRITE_FIELD: it,rec,kS,kL,kH=       1     3   1   1   1 file=m_sst_step.0000000001
(PID.TID 0000.0001)  MDS_READ_FIELD: opening global file: xx_atemp.effective.0000000001.data
(PID.TID 0000.0001) EXF_SET_FLD: processing field "climsss",  file: SSS_monthly.labsea1979
(PID.TID 0000.0001) EXF_SET_FLD:   myIter, count0, count1:         2      1      2
(PID.TID 0000.0001) EXF_SET_FLD:   first, changed, fac:   F   F    0.49726775956284153
(PID.TID 0000.0001) EXF_SET_FLD: processing field "uwind",  file: u10m.labsea1979
(PID.TID 0000.0001) EXF_SET_FLD:   myIter, count0, count1:         2      1      2
(PID.TID 0000.0001) EXF_SET_FLD:   first, changed, fac:   F   F    0.49726775956284153
(PID.TID 0000.0001) EXF_SET_FLD: processing field "vwind",  file: v10m.labsea1979
(PID.TID 0000.0001) EXF_SET_FLD:   myIter, count0, count1:         2      1      2
(PID.TID 0000.0001) EXF_SET_FLD:   first, changed, fac:   F   F    0.49726775956284153
(PID.TID 0000.0001) EXF_SET_FLD: processing field "atemp",  file: tair.labsea1979
(PID.TID 0000.0001) EXF_SET_FLD:   myIter, count0, count1:         2      1      2
(PID.TID 0000.0001) EXF_SET_FLD:   first, changed, fac:   F   F    0.49726775956284153
(PID.TID 0000.0001) EXF_SET_FLD: processing field "aqh",  file: qa.labsea1979
(PID.TID 0000.0001) EXF_SET_FLD:   myIter, count0, count1:         2      1      2
(PID.TID 0000.0001) EXF_SET_FLD:   first, changed, fac:   F   F    0.49726775956284153
(PID.TID 0000.0001) EXF_SET_FLD: processing field "precip",  file: prate.labsea1979
(PID.TID 0000.0001) EXF_SET_FLD:   myIter, count0, count1:         2      1      2
(PID.TID 0000.0001) EXF_SET_FLD:   first, changed, fac:   F   F    0.49726775956284153
(PID.TID 0000.0001) EXF_SET_FLD: processing field "swdown",  file: fsh.labsea1979
(PID.TID 0000.0001) EXF_SET_FLD:   myIter, count0, count1:         2      1      2
(PID.TID 0000.0001) EXF_SET_FLD:   first, changed, fac:   F   F    0.49726775956284153
(PID.TID 0000.0001) EXF_SET_FLD: processing field "lwdown",  file: flo.labsea1979
(PID.TID 0000.0001) EXF_SET_FLD:   myIter, count0, count1:         2      1      2
(PID.TID 0000.0001) EXF_SET_FLD:   first, changed, fac:   F   F    0.49726775956284153
(PID.TID 0000.0001) // =======================================================
(PID.TID 0000.0001) // Begin MONITOR EXF statistics
(PID.TID 0000.0001) // =======================================================
(PID.TID 0000.0001) %MON exf_tsnumber                 =                     2
(PID.TID 0000.0001) %MON exf_time_sec                 =   7.2000000000000E+03
(PID.TID 0000.0001) %MON exf_ustress_max              =   5.2257180291441E-02
(PID.TID 0000.0001) %MON exf_ustress_min              =  -9.3742262912804E-02
(PID.TID 0000.0001) %MON exf_ustress_mean             =   1.7657723165374E-02
(PID.TID 0000.0001) %MON exf_ustress_sd               =   2.3522014764152E-02
(PID.TID 0000.0001) %MON exf_ustress_del2             =   7.1340213405469E-04
(PID.TID 0000.0001) %MON exf_vstress_max              =   5.3801521426929E-02
(PID.TID 0000.0001) %MON exf_vstress_min              =  -5.8570582976558E-02
(PID.TID 0000.0001) %MON exf_vstress_mean             =  -5.4988047370426E-03
(PID.TID 0000.0001) %MON exf_vstress_sd               =   1.4365683135354E-02
(PID.TID 0000.0001) %MON exf_vstress_del2             =   5.1496875227674E-04
(PID.TID 0000.0001) %MON exf_hflux_max                =   6.2941289725787E+02
(PID.TID 0000.0001) %MON exf_hflux_min                =  -4.8378593223994E+01
(PID.TID 0000.0001) %MON exf_hflux_mean               =   1.5302903999431E+02
(PID.TID 0000.0001) %MON exf_hflux_sd                 =   1.8023388574536E+02
(PID.TID 0000.0001) %MON exf_hflux_del2               =   5.3586179938799E+00
(PID.TID 0000.0001) %MON exf_sflux_max                =   4.0727116381721E-08
(PID.TID 0000.0001) %MON exf_sflux_min                =  -8.7567590184123E-08
(PID.TID 0000.0001) %MON exf_sflux_mean               =  -2.5550893353529E-08
(PID.TID 0000.0001) %MON exf_sflux_sd                 =   3.0919054832070E-08
(PID.TID 0000.0001) %MON exf_sflux_del2               =   9.6248267704406E-10
(PID.TID 0000.0001) %MON exf_uwind_max                =   6.4653894471340E+00
(PID.TID 0000.0001) %MON exf_uwind_min                =  -6.8372916367536E+00
(PID.TID 0000.0001) %MON exf_uwind_mean               =   2.7699878382919E+00
(PID.TID 0000.0001) %MON exf_uwind_sd                 =   2.9905922217476E+00
(PID.TID 0000.0001) %MON exf_uwind_del2               =   8.0272544119550E-02
(PID.TID 0000.0001) %MON exf_vwind_max                =   3.9241285741003E+00
(PID.TID 0000.0001) %MON exf_vwind_min                =  -6.0178915685643E+00
(PID.TID 0000.0001) %MON exf_vwind_mean               =  -7.5966313506940E-01
(PID.TID 0000.0001) %MON exf_vwind_sd                 =   1.7295599554900E+00
(PID.TID 0000.0001) %MON exf_vwind_del2               =   4.8614718002806E-02
(PID.TID 0000.0001) %MON exf_wspeed_max               =   7.8833585477315E+00
(PID.TID 0000.0001) %MON exf_wspeed_min               =   4.5986651533145E-01
(PID.TID 0000.0001) %MON exf_wspeed_mean              =   4.1983267266652E+00
(PID.TID 0000.0001) %MON exf_wspeed_sd                =   1.5996852426804E+00
(PID.TID 0000.0001) %MON exf_wspeed_del2              =   1.3306862114295E-01
(PID.TID 0000.0001) %MON exf_atemp_max                =   2.8207938819427E+02
(PID.TID 0000.0001) %MON exf_atemp_min                =   2.3665283916869E+02
(PID.TID 0000.0001) %MON exf_atemp_mean               =   2.6413676967070E+02
(PID.TID 0000.0001) %MON exf_atemp_sd                 =   1.1986339246462E+01
(PID.TID 0000.0001) %MON exf_atemp_del2               =   1.6500326850123E-01
(PID.TID 0000.0001) %MON exf_aqh_max                  =   6.3217798619445E-03
(PID.TID 0000.0001) %MON exf_aqh_min                  =   1.6350454117726E-04
(PID.TID 0000.0001) %MON exf_aqh_mean                 =   2.4792421973794E-03
(PID.TID 0000.0001) %MON exf_aqh_sd                   =   1.4263013062694E-03
(PID.TID 0000.0001) %MON exf_aqh_del2                 =   1.7543081409385E-05
(PID.TID 0000.0001) %MON exf_lwflux_max               =   1.8572616848956E+02
(PID.TID 0000.0001) %MON exf_lwflux_min               =   3.4441148250994E+01
(PID.TID 0000.0001) %MON exf_lwflux_mean              =   8.2250398646103E+01
(PID.TID 0000.0001) %MON exf_lwflux_sd                =   4.1894975991021E+01
(PID.TID 0000.0001) %MON exf_lwflux_del2              =   8.9818349466828E-01
(PID.TID 0000.0001) %MON exf_evap_max                 =   4.7049998783953E-08
(PID.TID 0000.0001) %MON exf_evap_min                 =  -5.3653658897337E-09
(PID.TID 0000.0001) %MON exf_evap_mean                =   1.0839165501487E-08
(PID.TID 0000.0001) %MON exf_evap_sd                  =   1.1682214194266E-08
(PID.TID 0000.0001) %MON exf_evap_del2                =   4.6014631168352E-10
(PID.TID 0000.0001) %MON exf_precip_max               =   1.0499042589295E-07
(PID.TID 0000.0001) %MON exf_precip_min               =   2.7332713399833E-10
(PID.TID 0000.0001) %MON exf_precip_mean              =   3.6390058855016E-08
(PID.TID 0000.0001) %MON exf_precip_sd                =   2.0579049691733E-08
(PID.TID 0000.0001) %MON exf_precip_del2              =   8.1014157603155E-10
(PID.TID 0000.0001) %MON exf_swflux_max               =  -8.1206321227746E-02
(PID.TID 0000.0001) %MON exf_swflux_min               =  -6.4010854714816E+01
(PID.TID 0000.0001) %MON exf_swflux_mean              =  -2.6474287454698E+01
(PID.TID 0000.0001) %MON exf_swflux_sd                =   1.9633572905820E+01
(PID.TID 0000.0001) %MON exf_swflux_del2              =   8.9626632554875E-02
(PID.TID 0000.0001) %MON exf_swdown_max               =   7.1123171905351E+01
(PID.TID 0000.0001) %MON exf_swdown_min               =   9.0229245808607E-02
(PID.TID 0000.0001) %MON exf_swdown_mean              =   2.9415874949665E+01
(PID.TID 0000.0001) %MON exf_swdown_sd                =   2.1815081006466E+01
(PID.TID 0000.0001) %MON exf_swdown_del2              =   9.9585147283195E-02
(PID.TID 0000.0001) %MON exf_lwdown_max               =   3.0566206584993E+02
(PID.TID 0000.0001) %MON exf_lwdown_min               =   1.1596747835086E+02
(PID.TID 0000.0001) %MON exf_lwdown_mean              =   2.2591790230100E+02
(PID.TID 0000.0001) %MON exf_lwdown_sd                =   4.6285369157136E+01
(PID.TID 0000.0001) %MON exf_lwdown_del2              =   9.0892251720307E-01
(PID.TID 0000.0001) %MON exf_climsss_max              =   3.5040700380919E+01
(PID.TID 0000.0001) %MON exf_climsss_min              =   3.0667831827383E+01
(PID.TID 0000.0001) %MON exf_climsss_mean             =   3.3460362267948E+01
(PID.TID 0000.0001) %MON exf_climsss_sd               =   1.0318117788237E+00
(PID.TID 0000.0001) %MON exf_climsss_del2             =   2.6973864151273E-02
(PID.TID 0000.0001) // =======================================================
(PID.TID 0000.0001) // End MONITOR EXF statistics
(PID.TID 0000.0001) // =======================================================
DEBUG_STATS_RL: Uice pre  iter (SEAICE_LSR  1)  min= -2.72590911190358E-03
DEBUG_STATS_RL: Uice pre  iter (SEAICE_LSR  1)  max=  1.84821888363615E-01
DEBUG_STATS_RL: Uice pre  iter (SEAICE_LSR  1) mean=  4.43171854916750E-02
DEBUG_STATS_RL: Uice pre  iter (SEAICE_LSR  1) S.D.=  5.55969094951718E-02
DEBUG_STATS_RL: Vice pre  iter (SEAICE_LSR  1)  min= -3.16987209121493E-02
DEBUG_STATS_RL: Vice pre  iter (SEAICE_LSR  1)  max=  6.25866618672353E-02
DEBUG_STATS_RL: Vice pre  iter (SEAICE_LSR  1) mean= -5.92146683087827E-03
DEBUG_STATS_RL: Vice pre  iter (SEAICE_LSR  1) S.D.=  1.77615498820519E-02
DEBUG_STATS_RL: Uice pre  iter (SEAICE_LSR  2)  min= -3.50206878134750E-03
DEBUG_STATS_RL: Uice pre  iter (SEAICE_LSR  2)  max=  1.92025155896598E-01
DEBUG_STATS_RL: Uice pre  iter (SEAICE_LSR  2) mean=  5.29589963328407E-02
DEBUG_STATS_RL: Uice pre  iter (SEAICE_LSR  2) S.D.=  5.86189159299396E-02
DEBUG_STATS_RL: Vice pre  iter (SEAICE_LSR  2)  min= -6.12456112266708E-02
DEBUG_STATS_RL: Vice pre  iter (SEAICE_LSR  2)  max=  9.55317561460538E-02
DEBUG_STATS_RL: Vice pre  iter (SEAICE_LSR  2) mean= -1.11523016932042E-02
DEBUG_STATS_RL: Vice pre  iter (SEAICE_LSR  2) S.D.=  2.73762100034371E-02
DEBUG_STATS_RL:                EtaN (DYNAMICS)  min= -1.28344439274904E-01
DEBUG_STATS_RL:                EtaN (DYNAMICS)  max=  2.88598696737302E-01
DEBUG_STATS_RL:                EtaN (DYNAMICS) mean= -1.59051448134389E-03
DEBUG_STATS_RL:                EtaN (DYNAMICS) S.D.=  6.75540369544425E-02
DEBUG_STATS_RL:                Uvel (DYNAMICS)  min= -4.02432897586652E-02
DEBUG_STATS_RL:                Uvel (DYNAMICS)  max=  3.23458159885820E-02
DEBUG_STATS_RL:                Uvel (DYNAMICS) mean=  6.75465330206794E-04
DEBUG_STATS_RL:                Uvel (DYNAMICS) S.D.=  7.33761384667267E-03
DEBUG_STATS_RL:                Vvel (DYNAMICS)  min= -1.64862319058740E-02
DEBUG_STATS_RL:                Vvel (DYNAMICS)  max=  4.21759382970963E-02
DEBUG_STATS_RL:                Vvel (DYNAMICS) mean=  1.82858022907397E-03
DEBUG_STATS_RL:                Vvel (DYNAMICS) S.D.=  8.08424055894123E-03
DEBUG_STATS_RL:                Wvel (DYNAMICS)  min= -6.56490529174610E-05
DEBUG_STATS_RL:                Wvel (DYNAMICS)  max=  1.68683217295647E-04
DEBUG_STATS_RL:                Wvel (DYNAMICS) mean= -4.30739495112636E-07
DEBUG_STATS_RL:                Wvel (DYNAMICS) S.D.=  1.89945067258204E-05
DEBUG_STATS_RL:               Theta (DYNAMICS)  min= -1.83156742552816E+00
DEBUG_STATS_RL:               Theta (DYNAMICS)  max=  1.32606612249659E+01
DEBUG_STATS_RL:               Theta (DYNAMICS) mean=  2.43057765558689E+00
DEBUG_STATS_RL:               Theta (DYNAMICS) S.D.=  2.55246643542934E+00
DEBUG_STATS_RL:                Salt (DYNAMICS)  min=  2.76092906345221E+01
DEBUG_STATS_RL:                Salt (DYNAMICS)  max=  3.54509236522671E+01
DEBUG_STATS_RL:                Salt (DYNAMICS) mean=  3.39413044254433E+01
DEBUG_STATS_RL:                Salt (DYNAMICS) S.D.=  1.14495872836586E+00
DEBUG_STATS_RL:                  Gu (DYNAMICS)  min= -3.23510557472041E-02
DEBUG_STATS_RL:                  Gu (DYNAMICS)  max=  5.80377411255949E-02
DEBUG_STATS_RL:                  Gu (DYNAMICS) mean= -2.97572069526763E-04
DEBUG_STATS_RL:                  Gu (DYNAMICS) S.D.=  9.92934455351407E-03
DEBUG_STATS_RL:                  Gv (DYNAMICS)  min= -4.01882757136262E-02
DEBUG_STATS_RL:                  Gv (DYNAMICS)  max=  3.49568132071784E-02
DEBUG_STATS_RL:                  Gv (DYNAMICS) mean= -2.47632966121230E-03
DEBUG_STATS_RL:                  Gv (DYNAMICS) S.D.=  9.60357312382106E-03
DEBUG_STATS_RL:               GuNm1 (DYNAMICS)  min= -2.64915263690508E-07
DEBUG_STATS_RL:               GuNm1 (DYNAMICS)  max=  1.75889100747609E-07
DEBUG_STATS_RL:               GuNm1 (DYNAMICS) mean=  2.42191647085610E-09
DEBUG_STATS_RL:               GuNm1 (DYNAMICS) S.D.=  4.49076324943060E-08
DEBUG_STATS_RL:               GvNm1 (DYNAMICS)  min= -8.47298200116578E-08
DEBUG_STATS_RL:               GvNm1 (DYNAMICS)  max=  7.67749697778875E-08
DEBUG_STATS_RL:               GvNm1 (DYNAMICS) mean= -4.71533361262523E-10
DEBUG_STATS_RL:               GvNm1 (DYNAMICS) S.D.=  2.04113373444437E-08
DEBUG_STATS_RL:               GtNm1 (DYNAMICS)  min=  0.00000000000000E+00
DEBUG_STATS_RL:               GtNm1 (DYNAMICS)  max=  0.00000000000000E+00
DEBUG_STATS_RL:               GtNm1 (DYNAMICS) mean=  0.00000000000000E+00
DEBUG_STATS_RL:               GtNm1 (DYNAMICS) S.D.=  0.00000000000000E+00
DEBUG_STATS_RL:               GsNm1 (DYNAMICS)  min=  0.00000000000000E+00
DEBUG_STATS_RL:               GsNm1 (DYNAMICS)  max=  0.00000000000000E+00
DEBUG_STATS_RL:               GsNm1 (DYNAMICS) mean=  0.00000000000000E+00
DEBUG_STATS_RL:               GsNm1 (DYNAMICS) S.D.=  0.00000000000000E+00
DEBUG_STATS_RL:    cg2d_b (SOLVE_FOR_PRESSURE)  min= -7.51696131718231E+03
DEBUG_STATS_RL:    cg2d_b (SOLVE_FOR_PRESSURE)  max=  2.21291016221046E+03
DEBUG_STATS_RL:    cg2d_b (SOLVE_FOR_PRESSURE) mean=  4.14578001558160E-13
DEBUG_STATS_RL:    cg2d_b (SOLVE_FOR_PRESSURE) S.D.=  9.35355930257332E+02
 cg2d: Sum(rhs),rhsMax =   8.13238365537927E-15  1.20985040186716E+00
DEBUG_STATS_RL:    cg2d_x (SOLVE_FOR_PRESSURE)  min= -1.39137659519015E+00
DEBUG_STATS_RL:    cg2d_x (SOLVE_FOR_PRESSURE)  max=  3.06244143644373E+00
DEBUG_STATS_RL:    cg2d_x (SOLVE_FOR_PRESSURE) mean= -2.04738907200057E-02
DEBUG_STATS_RL:    cg2d_x (SOLVE_FOR_PRESSURE) S.D.=  7.54254787473285E-01
(PID.TID 0000.0001)      cg2d_init_res =   1.65582227490833E-01
(PID.TID 0000.0001)      cg2d_iters(min,last) =      -1      44
(PID.TID 0000.0001)      cg2d_last_res =   8.58420514954059E-14
DEBUG_STATS_RL:          Uvel (THERMODYNAMICS)  min= -4.85747443135375E-02
DEBUG_STATS_RL:          Uvel (THERMODYNAMICS)  max=  6.48566534974146E-02
DEBUG_STATS_RL:          Uvel (THERMODYNAMICS) mean=  2.83347825460039E-03
DEBUG_STATS_RL:          Uvel (THERMODYNAMICS) S.D.=  1.04406948546660E-02
DEBUG_STATS_RL:          Vvel (THERMODYNAMICS)  min= -2.93630589501538E-02
DEBUG_STATS_RL:          Vvel (THERMODYNAMICS)  max=  5.51081422495760E-02
DEBUG_STATS_RL:          Vvel (THERMODYNAMICS) mean=  1.89398823345572E-03
DEBUG_STATS_RL:          Vvel (THERMODYNAMICS) S.D.=  1.13685531753008E-02
DEBUG_STATS_RL:          Wvel (THERMODYNAMICS)  min= -1.01835019199986E-04
DEBUG_STATS_RL:          Wvel (THERMODYNAMICS)  max=  2.18299385766785E-04
DEBUG_STATS_RL:          Wvel (THERMODYNAMICS) mean= -3.58449213338056E-07
DEBUG_STATS_RL:          Wvel (THERMODYNAMICS) S.D.=  2.04428902649890E-05
DEBUG_STATS_RL:         Theta (THERMODYNAMICS)  min= -1.93250363389783E+00
DEBUG_STATS_RL:         Theta (THERMODYNAMICS)  max=  1.32631363173882E+01
DEBUG_STATS_RL:         Theta (THERMODYNAMICS) mean=  2.41867029854828E+00
DEBUG_STATS_RL:         Theta (THERMODYNAMICS) S.D.=  2.57126546321788E+00
DEBUG_STATS_RL:          Salt (THERMODYNAMICS)  min=  2.76143299539290E+01
DEBUG_STATS_RL:          Salt (THERMODYNAMICS)  max=  3.54510577106203E+01
DEBUG_STATS_RL:          Salt (THERMODYNAMICS) mean=  3.39375783473304E+01
DEBUG_STATS_RL:          Salt (THERMODYNAMICS) S.D.=  1.15271478316181E+00
DEBUG_STATS_RL:         GtNm1 (THERMODYNAMICS)  min=  0.00000000000000E+00
DEBUG_STATS_RL:         GtNm1 (THERMODYNAMICS)  max=  0.00000000000000E+00
DEBUG_STATS_RL:         GtNm1 (THERMODYNAMICS) mean=  0.00000000000000E+00
DEBUG_STATS_RL:         GtNm1 (THERMODYNAMICS) S.D.=  0.00000000000000E+00
DEBUG_STATS_RL:         GsNm1 (THERMODYNAMICS)  min=  0.00000000000000E+00
DEBUG_STATS_RL:         GsNm1 (THERMODYNAMICS)  max=  0.00000000000000E+00
DEBUG_STATS_RL:         GsNm1 (THERMODYNAMICS) mean=  0.00000000000000E+00
DEBUG_STATS_RL:         GsNm1 (THERMODYNAMICS) S.D.=  0.00000000000000E+00
(PID.TID 0000.0001) // =======================================================
(PID.TID 0000.0001) // Begin MONITOR dynamic field statistics
(PID.TID 0000.0001) // =======================================================
(PID.TID 0000.0001) %MON time_tsnumber                =                     3
(PID.TID 0000.0001) %MON time_secondsf                =   1.0800000000000E+04
(PID.TID 0000.0001) %MON dynstat_eta_max              =   3.1199737524387E-01
(PID.TID 0000.0001) %MON dynstat_eta_min              =  -1.4175155825320E-01
(PID.TID 0000.0001) %MON dynstat_eta_mean             =  -1.2626548335748E-16
(PID.TID 0000.0001) %MON dynstat_eta_sd               =   8.4432539030952E-02
(PID.TID 0000.0001) %MON dynstat_eta_del2             =   2.1981382272661E-03
(PID.TID 0000.0001) %MON dynstat_uvel_max             =   6.4856653497415E-02
(PID.TID 0000.0001) %MON dynstat_uvel_min             =  -4.8574744313537E-02
(PID.TID 0000.0001) %MON dynstat_uvel_mean            =  -2.0157066820492E-04
(PID.TID 0000.0001) %MON dynstat_uvel_sd              =   5.7053689465132E-03
(PID.TID 0000.0001) %MON dynstat_uvel_del2            =   2.7449200923396E-04
(PID.TID 0000.0001) %MON dynstat_vvel_max             =   5.5108142249576E-02
(PID.TID 0000.0001) %MON dynstat_vvel_min             =  -2.9363058950154E-02
(PID.TID 0000.0001) %MON dynstat_vvel_mean            =  -9.4159657959960E-04
(PID.TID 0000.0001) %MON dynstat_vvel_sd              =   8.4374954243668E-03
(PID.TID 0000.0001) %MON dynstat_vvel_del2            =   1.8519185810497E-04
(PID.TID 0000.0001) %MON dynstat_wvel_max             =   2.1829938576678E-04
(PID.TID 0000.0001) %MON dynstat_wvel_min             =  -1.0183501919999E-04
(PID.TID 0000.0001) %MON dynstat_wvel_mean            =  -1.2357503017557E-21
(PID.TID 0000.0001) %MON dynstat_wvel_sd              =   3.7265792001590E-05
(PID.TID 0000.0001) %MON dynstat_wvel_del2            =   6.6812833737239E-07
(PID.TID 0000.0001) %MON dynstat_theta_max            =   1.3263136317388E+01
(PID.TID 0000.0001) %MON dynstat_theta_min            =  -1.9325036338978E+00
(PID.TID 0000.0001) %MON dynstat_theta_mean           =   3.0735113540833E+00
(PID.TID 0000.0001) %MON dynstat_theta_sd             =   1.4276083348945E+00
(PID.TID 0000.0001) %MON dynstat_theta_del2           =   9.8667013753136E-03
(PID.TID 0000.0001) %MON dynstat_salt_max             =   3.5451057710620E+01
(PID.TID 0000.0001) %MON dynstat_salt_min             =   2.7614329953929E+01
(PID.TID 0000.0001) %MON dynstat_salt_mean            =   3.4746250457619E+01
(PID.TID 0000.0001) %MON dynstat_salt_sd              =   5.1242115979430E-01
(PID.TID 0000.0001) %MON dynstat_salt_del2            =   3.6602336736833E-03
(PID.TID 0000.0001) %MON dynstat_sst_max              =   5.4694789358966E+00
(PID.TID 0000.0001) %MON dynstat_sst_min              =  -1.9325036338978E+00
(PID.TID 0000.0001) %MON dynstat_sst_mean             =  -1.2151079138441E+00
(PID.TID 0000.0001) %MON dynstat_sst_sd               =   1.4200788266038E+00
(PID.TID 0000.0001) %MON dynstat_sst_del2             =   3.0698120264522E-02
(PID.TID 0000.0001) %MON dynstat_sss_max              =   3.2690292047001E+01
(PID.TID 0000.0001) %MON dynstat_sss_min              =   2.7614329953929E+01
(PID.TID 0000.0001) %MON dynstat_sss_mean             =   3.1228674628242E+01
(PID.TID 0000.0001) %MON dynstat_sss_sd               =   1.1656150450122E+00
(PID.TID 0000.0001) %MON dynstat_sss_del2             =   2.2407108519463E-02
(PID.TID 0000.0001) %MON forcing_qnet_max             =   4.3296427624174E+03
(PID.TID 0000.0001) %MON forcing_qnet_min             =  -4.8378593223994E+01
(PID.TID 0000.0001) %MON forcing_qnet_mean            =   1.5563864269656E+03
(PID.TID 0000.0001) %MON forcing_qnet_sd              =   1.0974453246314E+03
(PID.TID 0000.0001) %MON forcing_qnet_del2            =   8.9383297922906E+01
(PID.TID 0000.0001) %MON forcing_qsw_max              =   0.0000000000000E+00
(PID.TID 0000.0001) %MON forcing_qsw_min              =  -6.4010854714816E+01
(PID.TID 0000.0001) %MON forcing_qsw_mean             =  -1.3420132326941E+01
(PID.TID 0000.0001) %MON forcing_qsw_sd               =   2.1915797570102E+01
(PID.TID 0000.0001) %MON forcing_qsw_del2             =   1.2846408092411E+00
(PID.TID 0000.0001) %MON forcing_empmr_max            =  -2.2004399548975E-05
(PID.TID 0000.0001) %MON forcing_empmr_min            =  -1.2856135178431E-02
(PID.TID 0000.0001) %MON forcing_empmr_mean           =  -4.6224470595327E-03
(PID.TID 0000.0001) %MON forcing_empmr_sd             =   3.2457537620613E-03
(PID.TID 0000.0001) %MON forcing_empmr_del2           =   2.6665280420881E-04
(PID.TID 0000.0001) %MON forcing_fu_max               =   9.3783777623252E-02
(PID.TID 0000.0001) %MON forcing_fu_min               =  -3.6576766995426E-03
(PID.TID 0000.0001) %MON forcing_fu_mean              =   2.4185245202783E-02
(PID.TID 0000.0001) %MON forcing_fu_sd                =   2.4665177057273E-02
(PID.TID 0000.0001) %MON forcing_fu_del2              =   1.1890571050264E-03
(PID.TID 0000.0001) %MON forcing_fv_max               =   1.0589163244203E-02
(PID.TID 0000.0001) %MON forcing_fv_min               =  -4.3778567595907E-02
(PID.TID 0000.0001) %MON forcing_fv_mean              =  -6.2166629169534E-03
(PID.TID 0000.0001) %MON forcing_fv_sd                =   1.1340597394156E-02
(PID.TID 0000.0001) %MON forcing_fv_del2              =   5.6294444256501E-04
(PID.TID 0000.0001) %MON trAdv_CFL_u_max              =   1.7003381241036E-03
(PID.TID 0000.0001) %MON trAdv_CFL_v_max              =   8.7529191550593E-04
(PID.TID 0000.0001) %MON trAdv_CFL_w_max              =   4.6107548731130E-03
(PID.TID 0000.0001) %MON advcfl_uvel_max              =   1.7002517999830E-03
(PID.TID 0000.0001) %MON advcfl_vvel_max              =   8.9207897376756E-04
(PID.TID 0000.0001) %MON advcfl_wvel_max              =   8.5006596530049E-03
(PID.TID 0000.0001) %MON advcfl_W_hf_max              =   6.1071965145600E-03
(PID.TID 0000.0001) %MON pe_b_mean                    =   2.3501335387361E-05
(PID.TID 0000.0001) %MON ke_max                       =   2.0715368215471E-03
(PID.TID 0000.0001) %MON ke_mean                      =   4.0932726098659E-05
(PID.TID 0000.0001) %MON ke_vol                       =   5.3036189546438E+15
(PID.TID 0000.0001) %MON vort_r_min                   =  -3.7034966524100E-07
(PID.TID 0000.0001) %MON vort_r_max                   =   2.2219228534962E-07
(PID.TID 0000.0001) %MON vort_a_mean                  =   1.2067277963980E-04
(PID.TID 0000.0001) %MON vort_a_sd                    =   8.8113035639827E-06
(PID.TID 0000.0001) %MON vort_p_mean                  =   1.7734843700857E-04
(PID.TID 0000.0001) %MON vort_p_sd                    =   1.1691164064309E-04
(PID.TID 0000.0001) %MON surfExpan_theta_mean         =   2.6899604747116E-06
(PID.TID 0000.0001) %MON surfExpan_salt_mean          =  -1.6280805425952E-06
(PID.TID 0000.0001) // =======================================================
(PID.TID 0000.0001) // End MONITOR dynamic field statistics
(PID.TID 0000.0001) // =======================================================
(PID.TID 0000.0001) // =======================================================
(PID.TID 0000.0001) // Begin MONITOR SEAICE statistics
(PID.TID 0000.0001) // =======================================================
(PID.TID 0000.0001) %MON seaice_tsnumber              =                     3
(PID.TID 0000.0001) %MON seaice_time_sec              =   1.0800000000000E+04
(PID.TID 0000.0001) %MON seaice_uice_max              =   1.6135551775609E-01
(PID.TID 0000.0001) %MON seaice_uice_min              =  -4.8952232559593E-03
(PID.TID 0000.0001) %MON seaice_uice_mean             =   7.1093656646254E-02
(PID.TID 0000.0001) %MON seaice_uice_sd               =   5.7067768038063E-02
(PID.TID 0000.0001) %MON seaice_uice_del2             =   1.6091166179400E-03
(PID.TID 0000.0001) %MON seaice_vice_max              =   8.9107656121849E-02
(PID.TID 0000.0001) %MON seaice_vice_min              =  -1.5124654099587E-01
(PID.TID 0000.0001) %MON seaice_vice_mean             =  -1.8009999422221E-02
(PID.TID 0000.0001) %MON seaice_vice_sd               =   4.1723499537593E-02
(PID.TID 0000.0001) %MON seaice_vice_del2             =   1.6082775142652E-03
(PID.TID 0000.0001) %MON seaice_area_max              =   1.0000000000000E+00
(PID.TID 0000.0001) %MON seaice_area_min              =   0.0000000000000E+00
(PID.TID 0000.0001) %MON seaice_area_mean             =   6.5733632245371E-01
(PID.TID 0000.0001) %MON seaice_area_sd               =   4.7423614028122E-01
(PID.TID 0000.0001) %MON seaice_area_del2             =   3.6507465524977E-02
(PID.TID 0000.0001) %MON seaice_heff_max              =   5.7529882637125E-01
(PID.TID 0000.0001) %MON seaice_heff_min              =   0.0000000000000E+00
(PID.TID 0000.0001) %MON seaice_heff_mean             =   1.8151754561432E-01
(PID.TID 0000.0001) %MON seaice_heff_sd               =   1.8494053086347E-01
(PID.TID 0000.0001) %MON seaice_heff_del2             =   3.9430660591360E-03
(PID.TID 0000.0001) %MON seaice_hsnow_max             =   2.0012986760497E-01
(PID.TID 0000.0001) %MON seaice_hsnow_min             =   0.0000000000000E+00
(PID.TID 0000.0001) %MON seaice_hsnow_mean            =   6.4342424979257E-02
(PID.TID 0000.0001) %MON seaice_hsnow_sd              =   6.5540846331054E-02
(PID.TID 0000.0001) %MON seaice_hsnow_del2            =   1.3975718825320E-03
(PID.TID 0000.0001) %MON seaice_hsalt_max             =   5.0759157908662E+03
(PID.TID 0000.0001) %MON seaice_hsalt_min             =  -1.7763568394003E-15
(PID.TID 0000.0001) %MON seaice_hsalt_mean            =   1.4935556302312E+03
(PID.TID 0000.0001) %MON seaice_hsalt_sd              =   1.6045716437273E+03
(PID.TID 0000.0001) %MON seaice_hsalt_del2            =   3.5793800125221E+01
(PID.TID 0000.0001) // =======================================================
(PID.TID 0000.0001) // End MONITOR SEAICE statistics
(PID.TID 0000.0001) // =======================================================
 Computing Diagnostic #     23  ETAN         Counter:       1   Parms: SM      M1      
(PID.TID 0000.0001)  MDS_WRITE_FIELD: it,rec,kS,kL,kH=       3    -1  46   1   1 file=diags/state_2d_set1.0000000003
 Computing Diagnostic #    294  SIarea       Counter:       1   Parms: SM      M1      
(PID.TID 0000.0001)  MDS_WRITE_FIELD: it,rec,kS,kL,kH=       3    -2  46   1   1 file=diags/state_2d_set1.0000000003
 Computing Diagnostic #    297  SIheff       Counter:       1   Parms: SM      M1      
(PID.TID 0000.0001)  MDS_WRITE_FIELD: it,rec,kS,kL,kH=       3    -3  46   1   1 file=diags/state_2d_set1.0000000003
 Computing Diagnostic #    299  SIhsnow      Counter:       1   Parms: SM      M1      
(PID.TID 0000.0001)  MDS_WRITE_FIELD: it,rec,kS,kL,kH=       3    -4  46   1   1 file=diags/state_2d_set1.0000000003
 Computing Diagnostic #     25  DETADT2      Counter:       1   Parms: SM      M1      
(PID.TID 0000.0001)  MDS_WRITE_FIELD: it,rec,kS,kL,kH=       3    -5  46   1   1 file=diags/state_2d_set1.0000000003
 Computing Diagnostic #     73  PHIBOT       Counter:       1   Parms: SM      M1      
(PID.TID 0000.0001)  MDS_WRITE_FIELD: it,rec,kS,kL,kH=       3    -6  46   1   1 file=diags/state_2d_set1.0000000003
 Computing Diagnostic #     82  sIceLoad     Counter:       1   Parms: SM      U1      
(PID.TID 0000.0001)  MDS_WRITE_FIELD: it,rec,kS,kL,kH=       3    -7  46   1   1 file=diags/state_2d_set1.0000000003
 Computing Diagnostic #     76  MXLDEPTH     Counter:       1   Parms: SM      M1      
(PID.TID 0000.0001)  MDS_WRITE_FIELD: it,rec,kS,kL,kH=       3    -8  46   1   1 file=diags/state_2d_set1.0000000003
 Computing Diagnostic #    325  SIatmFW      Counter:       1   Parms: SM      U1      
(PID.TID 0000.0001)  MDS_WRITE_FIELD: it,rec,kS,kL,kH=       3    -9  46   1   1 file=diags/state_2d_set1.0000000003
 Computing Diagnostic #     85  oceQnet      Counter:       1   Parms: SM      U1      
(PID.TID 0000.0001)  MDS_WRITE_FIELD: it,rec,kS,kL,kH=       3   -10  46   1   1 file=diags/state_2d_set1.0000000003
 Computing Diagnostic #     83  oceFWflx     Counter:       1   Parms: SM      U1      
(PID.TID 0000.0001)  MDS_WRITE_FIELD: it,rec,kS,kL,kH=       3   -11  46   1   1 file=diags/state_2d_set1.0000000003
 Computing Diagnostic #     79  oceTAUX      Counter:       1   Parms: UU      U1      
           Vector  Mate for  oceTAUX      Diagnostic #     80  oceTAUY  exists 
(PID.TID 0000.0001)  MDS_WRITE_FIELD: it,rec,kS,kL,kH=       3   -12  46   1   1 file=diags/state_2d_set1.0000000003
 Computing Diagnostic #     80  oceTAUY      Counter:       1   Parms: VV      U1      
           Vector  Mate for  oceTAUY      Diagnostic #     79  oceTAUX  exists 
(PID.TID 0000.0001)  MDS_WRITE_FIELD: it,rec,kS,kL,kH=       3   -13  46   1   1 file=diags/state_2d_set1.0000000003
 Computing Diagnostic #    311  SIuice       Counter:       1   Parms: UU      M1      
           Vector  Mate for  SIuice       Diagnostic #    312  SIvice   exists 
(PID.TID 0000.0001)  MDS_WRITE_FIELD: it,rec,kS,kL,kH=       3   -14  46   1   1 file=diags/state_2d_set1.0000000003
 Computing Diagnostic #    312  SIvice       Counter:       1   Parms: VV      M1      
           Vector  Mate for  SIvice       Diagnostic #    311  SIuice   exists 
(PID.TID 0000.0001)  MDS_WRITE_FIELD: it,rec,kS,kL,kH=       3   -15  46   1   1 file=diags/state_2d_set1.0000000003
 Computing Diagnostic #     24  ETANSQ       Counter:       1   Parms: SM P    M1      
(PID.TID 0000.0001)  MDS_WRITE_FIELD: it,rec,kS,kL,kH=       3   -16  46   1   1 file=diags/state_2d_set1.0000000003
 Computing Diagnostic #     26  THETA        Counter:       1   Parms: SMR     MR      
(PID.TID 0000.0001)  MDS_WRITE_FIELD: it,rec,kS,kL,kH=       3    -1  46   1  23 file=diags/state_3d_set1.0000000003
 Computing Diagnostic #     27  SALT         Counter:       1   Parms: SMR     MR      
(PID.TID 0000.0001)  MDS_WRITE_FIELD: it,rec,kS,kL,kH=       3    -2  46   1  23 file=diags/state_3d_set1.0000000003
 Computing Diagnostic #     45  UVELMASS     Counter:       1   Parms: UUr     MR      
           Vector  Mate for  UVELMASS     Diagnostic #     46  VVELMASS exists 
(PID.TID 0000.0001)  MDS_WRITE_FIELD: it,rec,kS,kL,kH=       3    -1  46   1  23 file=diags/trsp_3d_set1.0000000003
 Computing Diagnostic #     46  VVELMASS     Counter:       1   Parms: VVr     MR      
           Vector  Mate for  VVELMASS     Diagnostic #     45  UVELMASS exists 
(PID.TID 0000.0001)  MDS_WRITE_FIELD: it,rec,kS,kL,kH=       3    -2  46   1  23 file=diags/trsp_3d_set1.0000000003
 Computing Diagnostic #    224  EXFpreci     Counter:       1   Parms: SM      U1      
(PID.TID 0000.0001)  MDS_WRITE_FIELD: it,rec,kS,kL,kH=       3    -1  46   1   1 file=diags/exf_zflux_set1.0000000003
 Computing Diagnostic #    223  EXFevap      Counter:       1   Parms: SM      U1      
(PID.TID 0000.0001)  MDS_WRITE_FIELD: it,rec,kS,kL,kH=       3    -2  46   1   1 file=diags/exf_zflux_set1.0000000003
 Computing Diagnostic #    228  EXFroff      Counter:       1   Parms: SM      U1      
(PID.TID 0000.0001)  MDS_WRITE_FIELD: it,rec,kS,kL,kH=       3    -3  46   1   1 file=diags/exf_zflux_set1.0000000003
 Computing Diagnostic #    226  EXFempmr     Counter:       1   Parms: SM      U1      
(PID.TID 0000.0001)  MDS_WRITE_FIELD: it,rec,kS,kL,kH=       3    -4  46   1   1 file=diags/exf_zflux_set1.0000000003
 Computing Diagnostic #    212  EXFswdn      Counter:       1   Parms: SM      U1      
(PID.TID 0000.0001)  MDS_WRITE_FIELD: it,rec,kS,kL,kH=       3    -5  46   1   1 file=diags/exf_zflux_set1.0000000003
 Computing Diagnostic #    211  EXFlwdn      Counter:       1   Parms: SM      U1      
(PID.TID 0000.0001)  MDS_WRITE_FIELD: it,rec,kS,kL,kH=       3    -6  46   1   1 file=diags/exf_zflux_set1.0000000003
 Computing Diagnostic #    210  EXFswnet     Counter:       1   Parms: SM      U1      
(PID.TID 0000.0001)  MDS_WRITE_FIELD: it,rec,kS,kL,kH=       3    -7  46   1   1 file=diags/exf_zflux_set1.0000000003
 Computing Diagnostic #    209  EXFlwnet     Counter:       1   Parms: SM      U1      
(PID.TID 0000.0001)  MDS_WRITE_FIELD: it,rec,kS,kL,kH=       3    -8  46   1   1 file=diags/exf_zflux_set1.0000000003
 Computing Diagnostic #    213  EXFqnet      Counter:       1   Parms: SM      U1      
(PID.TID 0000.0001)  MDS_WRITE_FIELD: it,rec,kS,kL,kH=       3    -9  46   1   1 file=diags/exf_zflux_set1.0000000003
 Computing Diagnostic #    221  EXFatemp     Counter:       1   Parms: SM      U1      
(PID.TID 0000.0001)  MDS_WRITE_FIELD: it,rec,kS,kL,kH=       3   -10  46   1   1 file=diags/exf_zflux_set1.0000000003
 Computing Diagnostic #    222  EXFaqh       Counter:       1   Parms: SM      U1      
(PID.TID 0000.0001)  MDS_WRITE_FIELD: it,rec,kS,kL,kH=       3   -11  46   1   1 file=diags/exf_zflux_set1.0000000003
 Computing Diagnostic #    214  EXFtaux      Counter:       1   Parms: UM      U1      
(PID.TID 0000.0001)  MDS_WRITE_FIELD: it,rec,kS,kL,kH=       3   -12  46   1   1 file=diags/exf_zflux_set1.0000000003
 Computing Diagnostic #    215  EXFtauy      Counter:       1   Parms: VM      U1      
(PID.TID 0000.0001)  MDS_WRITE_FIELD: it,rec,kS,kL,kH=       3   -13  46   1   1 file=diags/exf_zflux_set1.0000000003
 Computing Diagnostic #    216  EXFuwind     Counter:       1   Parms: UM      U1      
(PID.TID 0000.0001)  MDS_WRITE_FIELD: it,rec,kS,kL,kH=       3   -14  46   1   1 file=diags/exf_zflux_set1.0000000003
 Computing Diagnostic #    217  EXFvwind     Counter:       1   Parms: VM      U1      
(PID.TID 0000.0001)  MDS_WRITE_FIELD: it,rec,kS,kL,kH=       3   -15  46   1   1 file=diags/exf_zflux_set1.0000000003
 Computing Diagnostic #    227  EXFpress     Counter:       1   Parms: SM      U1      
(PID.TID 0000.0001)  MDS_WRITE_FIELD: it,rec,kS,kL,kH=       3   -16  46   1   1 file=diags/exf_zflux_set1.0000000003
 Computing Diagnostic #    207  EXFhs        Counter:       1   Parms: SM      U1      
(PID.TID 0000.0001)  MDS_WRITE_FIELD: it,rec,kS,kL,kH=       3   -17  46   1   1 file=diags/exf_zflux_set1.0000000003
 Computing Diagnostic #    208  EXFhl        Counter:       1   Parms: SM      U1      
(PID.TID 0000.0001)  MDS_WRITE_FIELD: it,rec,kS,kL,kH=       3   -18  46   1   1 file=diags/exf_zflux_set1.0000000003
(PID.TID 0000.0001)  write diagnostics summary to file: diagnostics_status.0000000003.txt
(PID.TID 0000.0001)  MDS_WRITE_FIELD: it,rec,kS,kL,kH=       3     1  23   1  23 file=pickup_cd.0000000003
(PID.TID 0000.0001)  MDS_WRITE_FIELD: it,rec,kS,kL,kH=       3     2  23   1  23 file=pickup_cd.0000000003
(PID.TID 0000.0001)  MDS_WRITE_FIELD: it,rec,kS,kL,kH=       3     3  23   1  23 file=pickup_cd.0000000003
(PID.TID 0000.0001)  MDS_WRITE_FIELD: it,rec,kS,kL,kH=       3     4  23   1  23 file=pickup_cd.0000000003
(PID.TID 0000.0001)  MDS_WRITE_FIELD: it,rec,kS,kL,kH=       3    93   1   1   1 file=pickup_cd.0000000003
(PID.TID 0000.0001)  MDS_WRITE_FIELD: it,rec,kS,kL,kH=       3    -1   7   1   7 file=pickup_seaice.0000000003
(PID.TID 0000.0001)  MDS_WRITE_FIELD: it,rec,kS,kL,kH=       3    -8   1   1   1 file=pickup_seaice.0000000003
(PID.TID 0000.0001)  MDS_WRITE_FIELD: it,rec,kS,kL,kH=       3    -9   1   1   1 file=pickup_seaice.0000000003
(PID.TID 0000.0001)  MDS_WRITE_FIELD: it,rec,kS,kL,kH=       3   -10   1   1   1 file=pickup_seaice.0000000003
(PID.TID 0000.0001)  MDS_WRITE_FIELD: it,rec,kS,kL,kH=       3   -11   1   1   1 file=pickup_seaice.0000000003
(PID.TID 0000.0001)  MDS_WRITE_FIELD: it,rec,kS,kL,kH=       3   -12   1   1   1 file=pickup_seaice.0000000003
(PID.TID 0000.0001)  MDS_WRITE_FIELD: it,rec,kS,kL,kH=       3   -13   1   1   1 file=pickup_seaice.0000000003
(PID.TID 0000.0001)  MDS_WRITE_FIELD: it,rec,kS,kL,kH=       3    -1  23   1  23 file=pickup.0000000003
(PID.TID 0000.0001)  MDS_WRITE_FIELD: it,rec,kS,kL,kH=       3    -2  23   1  23 file=pickup.0000000003
(PID.TID 0000.0001)  MDS_WRITE_FIELD: it,rec,kS,kL,kH=       3    -3  23   1  23 file=pickup.0000000003
(PID.TID 0000.0001)  MDS_WRITE_FIELD: it,rec,kS,kL,kH=       3    -4  23   1  23 file=pickup.0000000003
(PID.TID 0000.0001)  MDS_WRITE_FIELD: it,rec,kS,kL,kH=       3    -5  23   1  23 file=pickup.0000000003
(PID.TID 0000.0001)  MDS_WRITE_FIELD: it,rec,kS,kL,kH=       3    -6  23   1  23 file=pickup.0000000003
(PID.TID 0000.0001)  MDS_WRITE_FIELD: it,rec,kS,kL,kH=       3  -139   1   1   1 file=pickup.0000000003
(PID.TID 0000.0001)  MDS_WRITE_FIELD: it,rec,kS,kL,kH=       3  -140   1   1   1 file=pickup.0000000003
(PID.TID 0000.0001)  MDS_WRITE_FIELD: it,rec,kS,kL,kH=       3  -141   1   1   1 file=pickup.0000000003
(PID.TID 0000.0001) %CHECKPOINT         3 0000000003
(PID.TID 0000.0001)  MDS_WRITE_FIELD: it,rec,kS,kL,kH=       1     4   1   1   1 file=m_sst_step.0000000001
(PID.TID 0000.0001)  MDS_READ_FIELD: opening global file: xx_atemp.effective.0000000001.data
(PID.TID 0000.0001) EXF_SET_FLD: processing field "climsss",  file: SSS_monthly.labsea1979
(PID.TID 0000.0001) EXF_SET_FLD:   myIter, count0, count1:         3      1      2
(PID.TID 0000.0001) EXF_SET_FLD:   first, changed, fac:   F   F    0.49590163934426235
(PID.TID 0000.0001) EXF_SET_FLD: processing field "uwind",  file: u10m.labsea1979
(PID.TID 0000.0001) EXF_SET_FLD:   myIter, count0, count1:         3      1      2
(PID.TID 0000.0001) EXF_SET_FLD:   first, changed, fac:   F   F    0.49590163934426235
(PID.TID 0000.0001) EXF_SET_FLD: processing field "vwind",  file: v10m.labsea1979
(PID.TID 0000.0001) EXF_SET_FLD:   myIter, count0, count1:         3      1      2
(PID.TID 0000.0001) EXF_SET_FLD:   first, changed, fac:   F   F    0.49590163934426235
(PID.TID 0000.0001) EXF_SET_FLD: processing field "atemp",  file: tair.labsea1979
(PID.TID 0000.0001) EXF_SET_FLD:   myIter, count0, count1:         3      1      2
(PID.TID 0000.0001) EXF_SET_FLD:   first, changed, fac:   F   F    0.49590163934426235
(PID.TID 0000.0001) EXF_SET_FLD: processing field "aqh",  file: qa.labsea1979
(PID.TID 0000.0001) EXF_SET_FLD:   myIter, count0, count1:         3      1      2
(PID.TID 0000.0001) EXF_SET_FLD:   first, changed, fac:   F   F    0.49590163934426235
(PID.TID 0000.0001) EXF_SET_FLD: processing field "precip",  file: prate.labsea1979
(PID.TID 0000.0001) EXF_SET_FLD:   myIter, count0, count1:         3      1      2
(PID.TID 0000.0001) EXF_SET_FLD:   first, changed, fac:   F   F    0.49590163934426235
(PID.TID 0000.0001) EXF_SET_FLD: processing field "swdown",  file: fsh.labsea1979
(PID.TID 0000.0001) EXF_SET_FLD:   myIter, count0, count1:         3      1      2
(PID.TID 0000.0001) EXF_SET_FLD:   first, changed, fac:   F   F    0.49590163934426235
(PID.TID 0000.0001) EXF_SET_FLD: processing field "lwdown",  file: flo.labsea1979
(PID.TID 0000.0001) EXF_SET_FLD:   myIter, count0, count1:         3      1      2
(PID.TID 0000.0001) EXF_SET_FLD:   first, changed, fac:   F   F    0.49590163934426235
(PID.TID 0000.0001) // =======================================================
(PID.TID 0000.0001) // Begin MONITOR EXF statistics
(PID.TID 0000.0001) // =======================================================
(PID.TID 0000.0001) %MON exf_tsnumber                 =                     3
(PID.TID 0000.0001) %MON exf_time_sec                 =   1.0800000000000E+04
(PID.TID 0000.0001) %MON exf_ustress_max              =   5.2105266717517E-02
(PID.TID 0000.0001) %MON exf_ustress_min              =  -9.3667217869619E-02
(PID.TID 0000.0001) %MON exf_ustress_mean             =   1.7514479573373E-02
(PID.TID 0000.0001) %MON exf_ustress_sd               =   2.3434618724775E-02
(PID.TID 0000.0001) %MON exf_ustress_del2             =   7.1311152927666E-04
(PID.TID 0000.0001) %MON exf_vstress_max              =   5.3758653693478E-02
(PID.TID 0000.0001) %MON exf_vstress_min              =  -5.8365954437190E-02
(PID.TID 0000.0001) %MON exf_vstress_mean             =  -5.4408353802247E-03
(PID.TID 0000.0001) %MON exf_vstress_sd               =   1.4325306125766E-02
(PID.TID 0000.0001) %MON exf_vstress_del2             =   5.1694848218347E-04
(PID.TID 0000.0001) %MON exf_hflux_max                =   6.2536438217309E+02
(PID.TID 0000.0001) %MON exf_hflux_min                =  -4.8178566714570E+01
(PID.TID 0000.0001) %MON exf_hflux_mean               =   1.5043748672939E+02
(PID.TID 0000.0001) %MON exf_hflux_sd                 =   1.7918670631609E+02
(PID.TID 0000.0001) %MON exf_hflux_del2               =   5.3084876217826E+00
(PID.TID 0000.0001) %MON exf_sflux_max                =   4.0292322963895E-08
(PID.TID 0000.0001) %MON exf_sflux_min                =  -8.8355110715613E-08
(PID.TID 0000.0001) %MON exf_sflux_mean               =  -2.5837321738133E-08
(PID.TID 0000.0001) %MON exf_sflux_sd                 =   3.0805033557698E-08
(PID.TID 0000.0001) %MON exf_sflux_del2               =   9.5872988923981E-10
(PID.TID 0000.0001) %MON exf_uwind_max                =   6.4658968995829E+00
(PID.TID 0000.0001) %MON exf_uwind_min                =  -6.8373184184559E+00
(PID.TID 0000.0001) %MON exf_uwind_mean               =   2.7700953906363E+00
(PID.TID 0000.0001) %MON exf_uwind_sd                 =   2.9908682681638E+00
(PID.TID 0000.0001) %MON exf_uwind_del2               =   8.0272350887158E-02
(PID.TID 0000.0001) %MON exf_vwind_max                =   3.9241587548959E+00
(PID.TID 0000.0001) %MON exf_vwind_min                =  -6.0169856587394E+00
(PID.TID 0000.0001) %MON exf_vwind_mean               =  -7.5904536197929E-01
(PID.TID 0000.0001) %MON exf_vwind_sd                 =   1.7296682234552E+00
(PID.TID 0000.0001) %MON exf_vwind_del2               =   4.8614569325440E-02
(PID.TID 0000.0001) %MON exf_wspeed_max               =   7.8833967989048E+00
(PID.TID 0000.0001) %MON exf_wspeed_min               =   4.5962367887737E-01
(PID.TID 0000.0001) %MON exf_wspeed_mean              =   4.1984294286706E+00
(PID.TID 0000.0001) %MON exf_wspeed_sd                =   1.5999418201857E+00
(PID.TID 0000.0001) %MON exf_wspeed_del2              =   1.3307384911233E-01
(PID.TID 0000.0001) %MON exf_atemp_max                =   2.8212767604140E+02
(PID.TID 0000.0001) %MON exf_atemp_min                =   2.3669837420104E+02
(PID.TID 0000.0001) %MON exf_atemp_mean               =   2.6418212558534E+02
(PID.TID 0000.0001) %MON exf_atemp_sd                 =   1.1987800753926E+01
(PID.TID 0000.0001) %MON exf_atemp_del2               =   1.6501188214927E-01
(PID.TID 0000.0001) %MON exf_aqh_max                  =   6.3210833210834E-03
(PID.TID 0000.0001) %MON exf_aqh_min                  =   1.6341043767886E-04
(PID.TID 0000.0001) %MON exf_aqh_mean                 =   2.4786818409748E-03
(PID.TID 0000.0001) %MON exf_aqh_sd                   =   1.4261982746893E-03
(PID.TID 0000.0001) %MON exf_aqh_del2                 =   1.7541214765170E-05
(PID.TID 0000.0001) %MON exf_lwflux_max               =   1.8516255040553E+02
(PID.TID 0000.0001) %MON exf_lwflux_min               =   3.4494679395224E+01
(PID.TID 0000.0001) %MON exf_lwflux_mean              =   8.1682169335935E+01
(PID.TID 0000.0001) %MON exf_lwflux_sd                =   4.1769070765085E+01
(PID.TID 0000.0001) %MON exf_lwflux_del2              =   8.9672096123633E-01
(PID.TID 0000.0001) %MON exf_evap_max                 =   4.6614542655197E-08
(PID.TID 0000.0001) %MON exf_evap_min                 =  -5.2832448490558E-09
(PID.TID 0000.0001) %MON exf_evap_mean                =   1.0552726272849E-08
(PID.TID 0000.0001) %MON exf_evap_sd                  =   1.1557811476887E-08
(PID.TID 0000.0001) %MON exf_evap_del2                =   4.5356680934288E-10
(PID.TID 0000.0001) %MON exf_precip_max               =   1.0499180733557E-07
(PID.TID 0000.0001) %MON exf_precip_min               =   2.7319320752566E-10
(PID.TID 0000.0001) %MON exf_precip_mean              =   3.6390048010982E-08
(PID.TID 0000.0001) %MON exf_precip_sd                =   2.0579501435483E-08
(PID.TID 0000.0001) %MON exf_precip_del2              =   8.1033905369874E-10
(PID.TID 0000.0001) %MON exf_swflux_max               =  -8.1206604105527E-02
(PID.TID 0000.0001) %MON exf_swflux_min               =  -6.4029725065388E+01
(PID.TID 0000.0001) %MON exf_swflux_mean              =  -2.6484819670573E+01
(PID.TID 0000.0001) %MON exf_swflux_sd                =   1.9637409707136E+01
(PID.TID 0000.0001) %MON exf_swflux_del2              =   8.9655141867092E-02
(PID.TID 0000.0001) %MON exf_swdown_max               =   7.1144138961542E+01
(PID.TID 0000.0001) %MON exf_swdown_min               =   9.0229560117253E-02
(PID.TID 0000.0001) %MON exf_swdown_mean              =   2.9427577411748E+01
(PID.TID 0000.0001) %MON exf_swdown_sd                =   2.1819344119040E+01
(PID.TID 0000.0001) %MON exf_swdown_del2              =   9.9616824296769E-02
(PID.TID 0000.0001) %MON exf_lwdown_max               =   3.0565323976611E+02
(PID.TID 0000.0001) %MON exf_lwdown_min               =   1.1595237147222E+02
(PID.TID 0000.0001) %MON exf_lwdown_mean              =   2.2590219497194E+02
(PID.TID 0000.0001) %MON exf_lwdown_sd                =   4.6289340871590E+01
(PID.TID 0000.0001) %MON exf_lwdown_del2              =   9.0897032499402E-01
(PID.TID 0000.0001) %MON exf_climsss_max              =   3.5040885127959E+01
(PID.TID 0000.0001) %MON exf_climsss_min              =   3.0668591155380E+01
(PID.TID 0000.0001) %MON exf_climsss_mean             =   3.3460883601427E+01
(PID.TID 0000.0001) %MON exf_climsss_sd               =   1.0317405668875E+00
(PID.TID 0000.0001) %MON exf_climsss_del2             =   2.6972899555616E-02
(PID.TID 0000.0001) // =======================================================
(PID.TID 0000.0001) // End MONITOR EXF statistics
(PID.TID 0000.0001) // =======================================================
DEBUG_STATS_RL: Uice pre  iter (SEAICE_LSR  1)  min= -4.89522325595929E-03
DEBUG_STATS_RL: Uice pre  iter (SEAICE_LSR  1)  max=  1.61355517756085E-01
DEBUG_STATS_RL: Uice pre  iter (SEAICE_LSR  1) mean=  5.67051326035122E-02
DEBUG_STATS_RL: Uice pre  iter (SEAICE_LSR  1) S.D.=  5.73816154995328E-02
DEBUG_STATS_RL: Vice pre  iter (SEAICE_LSR  1)  min= -1.51246540995869E-01
DEBUG_STATS_RL: Vice pre  iter (SEAICE_LSR  1)  max=  8.91076561218486E-02
DEBUG_STATS_RL: Vice pre  iter (SEAICE_LSR  1) mean= -1.97403473770901E-02
DEBUG_STATS_RL: Vice pre  iter (SEAICE_LSR  1) S.D.=  3.94189649069372E-02
DEBUG_STATS_RL: Uice pre  iter (SEAICE_LSR  2)  min= -5.42054480415845E-03
DEBUG_STATS_RL: Uice pre  iter (SEAICE_LSR  2)  max=  2.02641844081809E-01
DEBUG_STATS_RL: Uice pre  iter (SEAICE_LSR  2) mean=  6.47762112260320E-02
DEBUG_STATS_RL: Uice pre  iter (SEAICE_LSR  2) S.D.=  6.71608790533457E-02
DEBUG_STATS_RL: Vice pre  iter (SEAICE_LSR  2)  min= -1.45601126352230E-01
DEBUG_STATS_RL: Vice pre  iter (SEAICE_LSR  2)  max=  1.04145470460115E-01
DEBUG_STATS_RL: Vice pre  iter (SEAICE_LSR  2) mean= -2.31827417442921E-02
DEBUG_STATS_RL: Vice pre  iter (SEAICE_LSR  2) S.D.=  4.33109039412475E-02
DEBUG_STATS_RL:                EtaN (DYNAMICS)  min= -1.41751558253204E-01
DEBUG_STATS_RL:                EtaN (DYNAMICS)  max=  3.11997375243870E-01
DEBUG_STATS_RL:                EtaN (DYNAMICS) mean= -2.08585218631625E-03
DEBUG_STATS_RL:                EtaN (DYNAMICS) S.D.=  7.68424535915567E-02
DEBUG_STATS_RL:                Uvel (DYNAMICS)  min= -4.85747443135375E-02
DEBUG_STATS_RL:                Uvel (DYNAMICS)  max=  6.48566534974146E-02
DEBUG_STATS_RL:                Uvel (DYNAMICS) mean=  2.83347825460039E-03
DEBUG_STATS_RL:                Uvel (DYNAMICS) S.D.=  1.04406948546660E-02
DEBUG_STATS_RL:                Vvel (DYNAMICS)  min= -2.93630589501538E-02
DEBUG_STATS_RL:                Vvel (DYNAMICS)  max=  5.51081422495760E-02
DEBUG_STATS_RL:                Vvel (DYNAMICS) mean=  1.89398823345572E-03
DEBUG_STATS_RL:                Vvel (DYNAMICS) S.D.=  1.13685531753008E-02
DEBUG_STATS_RL:                Wvel (DYNAMICS)  min= -1.01835019199986E-04
DEBUG_STATS_RL:                Wvel (DYNAMICS)  max=  2.18299385766785E-04
DEBUG_STATS_RL:                Wvel (DYNAMICS) mean= -3.58449213338056E-07
DEBUG_STATS_RL:                Wvel (DYNAMICS) S.D.=  2.04428902649890E-05
DEBUG_STATS_RL:               Theta (DYNAMICS)  min= -1.93250363389783E+00
DEBUG_STATS_RL:               Theta (DYNAMICS)  max=  1.32631363173882E+01
DEBUG_STATS_RL:               Theta (DYNAMICS) mean=  2.41867029854828E+00
DEBUG_STATS_RL:               Theta (DYNAMICS) S.D.=  2.57126546321788E+00
DEBUG_STATS_RL:                Salt (DYNAMICS)  min=  2.76143299539290E+01
DEBUG_STATS_RL:                Salt (DYNAMICS)  max=  3.54510577106203E+01
DEBUG_STATS_RL:                Salt (DYNAMICS) mean=  3.39375783473304E+01
DEBUG_STATS_RL:                Salt (DYNAMICS) S.D.=  1.15271478316181E+00
DEBUG_STATS_RL:                  Gu (DYNAMICS)  min= -3.31660092548350E-02
DEBUG_STATS_RL:                  Gu (DYNAMICS)  max=  7.71641715782451E-02
DEBUG_STATS_RL:                  Gu (DYNAMICS) mean=  1.79729889203216E-03
DEBUG_STATS_RL:                  Gu (DYNAMICS) S.D.=  1.23549872720709E-02
DEBUG_STATS_RL:                  Gv (DYNAMICS)  min= -6.51102265934831E-02
DEBUG_STATS_RL:                  Gv (DYNAMICS)  max=  4.74792371894019E-02
DEBUG_STATS_RL:                  Gv (DYNAMICS) mean= -3.61268002204907E-03
DEBUG_STATS_RL:                  Gv (DYNAMICS) S.D.=  1.25565096773612E-02
DEBUG_STATS_RL:               GuNm1 (DYNAMICS)  min= -2.57489899416700E-07
DEBUG_STATS_RL:               GuNm1 (DYNAMICS)  max=  1.89368528479167E-07
DEBUG_STATS_RL:               GuNm1 (DYNAMICS) mean=  4.40117075217825E-12
DEBUG_STATS_RL:               GuNm1 (DYNAMICS) S.D.=  4.68821385830656E-08
DEBUG_STATS_RL:               GvNm1 (DYNAMICS)  min= -1.09603640235134E-07
DEBUG_STATS_RL:               GvNm1 (DYNAMICS)  max=  9.62789262154712E-08
DEBUG_STATS_RL:               GvNm1 (DYNAMICS) mean= -8.49526391149606E-10
DEBUG_STATS_RL:               GvNm1 (DYNAMICS) S.D.=  2.55629549792478E-08
DEBUG_STATS_RL:               GtNm1 (DYNAMICS)  min=  0.00000000000000E+00
DEBUG_STATS_RL:               GtNm1 (DYNAMICS)  max=  0.00000000000000E+00
DEBUG_STATS_RL:               GtNm1 (DYNAMICS) mean=  0.00000000000000E+00
DEBUG_STATS_RL:               GtNm1 (DYNAMICS) S.D.=  0.00000000000000E+00
DEBUG_STATS_RL:               GsNm1 (DYNAMICS)  min=  0.00000000000000E+00
DEBUG_STATS_RL:               GsNm1 (DYNAMICS)  max=  0.00000000000000E+00
DEBUG_STATS_RL:               GsNm1 (DYNAMICS) mean=  0.00000000000000E+00
DEBUG_STATS_RL:               GsNm1 (DYNAMICS) S.D.=  0.00000000000000E+00
DEBUG_STATS_RL:    cg2d_b (SOLVE_FOR_PRESSURE)  min= -7.48820843436671E+03
DEBUG_STATS_RL:    cg2d_b (SOLVE_FOR_PRESSURE)  max=  2.19603477106472E+03
DEBUG_STATS_RL:    cg2d_b (SOLVE_FOR_PRESSURE) mean=  2.14489167168116E-13
DEBUG_STATS_RL:    cg2d_b (SOLVE_FOR_PRESSURE) S.D.=  9.20730314173818E+02
 cg2d: Sum(rhs),rhsMax =   5.49560397189452E-15  1.20522264267546E+00
DEBUG_STATS_RL:    cg2d_x (SOLVE_FOR_PRESSURE)  min= -1.31033012419165E+00
DEBUG_STATS_RL:    cg2d_x (SOLVE_FOR_PRESSURE)  max=  3.14089981024926E+00
DEBUG_STATS_RL:    cg2d_x (SOLVE_FOR_PRESSURE) mean= -2.47876044023014E-02
DEBUG_STATS_RL:    cg2d_x (SOLVE_FOR_PRESSURE) S.D.=  7.62604990072166E-01
(PID.TID 0000.0001)      cg2d_init_res =   1.24997897738852E-01
(PID.TID 0000.0001)      cg2d_iters(min,last) =      -1      44
(PID.TID 0000.0001)      cg2d_last_res =   9.20581284937176E-14
DEBUG_STATS_RL:          Uvel (THERMODYNAMICS)  min= -4.51228100181699E-02
DEBUG_STATS_RL:          Uvel (THERMODYNAMICS)  max=  8.23946614698039E-02
DEBUG_STATS_RL:          Uvel (THERMODYNAMICS) mean=  4.46006533351786E-03
DEBUG_STATS_RL:          Uvel (THERMODYNAMICS) S.D.=  1.25503402183565E-02
DEBUG_STATS_RL:          Vvel (THERMODYNAMICS)  min= -5.43131072024495E-02
DEBUG_STATS_RL:          Vvel (THERMODYNAMICS)  max=  6.64710959483302E-02
DEBUG_STATS_RL:          Vvel (THERMODYNAMICS) mean=  9.07394962405455E-04
DEBUG_STATS_RL:          Vvel (THERMODYNAMICS) S.D.=  1.42265213439462E-02
DEBUG_STATS_RL:          Wvel (THERMODYNAMICS)  min= -1.50094143875166E-04
DEBUG_STATS_RL:          Wvel (THERMODYNAMICS)  max=  2.67848367720703E-04
DEBUG_STATS_RL:          Wvel (THERMODYNAMICS) mean= -2.83768310637974E-07
DEBUG_STATS_RL:          Wvel (THERMODYNAMICS) S.D.=  2.30755404976203E-05
DEBUG_STATS_RL:         Theta (THERMODYNAMICS)  min= -1.95323356757650E+00
DEBUG_STATS_RL:         Theta (THERMODYNAMICS)  max=  1.32611729219858E+01
DEBUG_STATS_RL:         Theta (THERMODYNAMICS) mean=  2.41624287435038E+00
DEBUG_STATS_RL:         Theta (THERMODYNAMICS) S.D.=  2.57467251754838E+00
DEBUG_STATS_RL:          Salt (THERMODYNAMICS)  min=  2.76192995644599E+01
DEBUG_STATS_RL:          Salt (THERMODYNAMICS)  max=  3.54511687806856E+01
DEBUG_STATS_RL:          Salt (THERMODYNAMICS) mean=  3.39368869963862E+01
DEBUG_STATS_RL:          Salt (THERMODYNAMICS) S.D.=  1.15395653842225E+00
DEBUG_STATS_RL:         GtNm1 (THERMODYNAMICS)  min=  0.00000000000000E+00
DEBUG_STATS_RL:         GtNm1 (THERMODYNAMICS)  max=  0.00000000000000E+00
DEBUG_STATS_RL:         GtNm1 (THERMODYNAMICS) mean=  0.00000000000000E+00
DEBUG_STATS_RL:         GtNm1 (THERMODYNAMICS) S.D.=  0.00000000000000E+00
DEBUG_STATS_RL:         GsNm1 (THERMODYNAMICS)  min=  0.00000000000000E+00
DEBUG_STATS_RL:         GsNm1 (THERMODYNAMICS)  max=  0.00000000000000E+00
DEBUG_STATS_RL:         GsNm1 (THERMODYNAMICS) mean=  0.00000000000000E+00
DEBUG_STATS_RL:         GsNm1 (THERMODYNAMICS) S.D.=  0.00000000000000E+00
(PID.TID 0000.0001) // =======================================================
(PID.TID 0000.0001) // Begin MONITOR dynamic field statistics
(PID.TID 0000.0001) // =======================================================
(PID.TID 0000.0001) %MON time_tsnumber                =                     4
(PID.TID 0000.0001) %MON time_secondsf                =   1.4400000000000E+04
(PID.TID 0000.0001) %MON dynstat_eta_max              =   3.1999060783337E-01
(PID.TID 0000.0001) %MON dynstat_eta_min              =  -1.3349465383590E-01
(PID.TID 0000.0001) %MON dynstat_eta_mean             =  -1.7344020070453E-16
(PID.TID 0000.0001) %MON dynstat_eta_sd               =   8.5183282855811E-02
(PID.TID 0000.0001) %MON dynstat_eta_del2             =   2.0934663313812E-03
(PID.TID 0000.0001) %MON dynstat_uvel_max             =   8.2394661469804E-02
(PID.TID 0000.0001) %MON dynstat_uvel_min             =  -4.5122810018170E-02
(PID.TID 0000.0001) %MON dynstat_uvel_mean            =   2.6837256742056E-04
(PID.TID 0000.0001) %MON dynstat_uvel_sd              =   6.7136479732244E-03
(PID.TID 0000.0001) %MON dynstat_uvel_del2            =   3.0038202964918E-04
(PID.TID 0000.0001) %MON dynstat_vvel_max             =   6.6471095948330E-02
(PID.TID 0000.0001) %MON dynstat_vvel_min             =  -5.4313107202449E-02
(PID.TID 0000.0001) %MON dynstat_vvel_mean            =  -5.9196694695697E-04
(PID.TID 0000.0001) %MON dynstat_vvel_sd              =   9.3731168148180E-03
(PID.TID 0000.0001) %MON dynstat_vvel_del2            =   1.9144149451182E-04
(PID.TID 0000.0001) %MON dynstat_wvel_max             =   2.6784836772070E-04
(PID.TID 0000.0001) %MON dynstat_wvel_min             =  -1.5009414387517E-04
(PID.TID 0000.0001) %MON dynstat_wvel_mean            =   5.3137262975494E-22
(PID.TID 0000.0001) %MON dynstat_wvel_sd              =   4.4062613888204E-05
(PID.TID 0000.0001) %MON dynstat_wvel_del2            =   7.6541940729741E-07
(PID.TID 0000.0001) %MON dynstat_theta_max            =   1.3261172921986E+01
(PID.TID 0000.0001) %MON dynstat_theta_min            =  -1.9532335675765E+00
(PID.TID 0000.0001) %MON dynstat_theta_mean           =   3.0733272681077E+00
(PID.TID 0000.0001) %MON dynstat_theta_sd             =   1.4281123906971E+00
(PID.TID 0000.0001) %MON dynstat_theta_del2           =   9.8552858455599E-03
(PID.TID 0000.0001) %MON dynstat_salt_max             =   3.5451168780686E+01
(PID.TID 0000.0001) %MON dynstat_salt_min             =   2.7619299564460E+01
(PID.TID 0000.0001) %MON dynstat_salt_mean            =   3.4746200057365E+01
(PID.TID 0000.0001) %MON dynstat_salt_sd              =   5.1270473097506E-01
(PID.TID 0000.0001) %MON dynstat_salt_del2            =   3.6564346735465E-03
(PID.TID 0000.0001) %MON dynstat_sst_max              =   5.4809448917016E+00
(PID.TID 0000.0001) %MON dynstat_sst_min              =  -1.9532335675765E+00
(PID.TID 0000.0001) %MON dynstat_sst_mean             =  -1.2383286360417E+00
(PID.TID 0000.0001) %MON dynstat_sst_sd               =   1.4346128588449E+00
(PID.TID 0000.0001) %MON dynstat_sst_del2             =   3.0624010680823E-02
(PID.TID 0000.0001) %MON dynstat_sss_max              =   3.2693319951995E+01
(PID.TID 0000.0001) %MON dynstat_sss_min              =   2.7619299564460E+01
(PID.TID 0000.0001) %MON dynstat_sss_mean             =   3.1222350022010E+01
(PID.TID 0000.0001) %MON dynstat_sss_sd               =   1.1640686152835E+00
(PID.TID 0000.0001) %MON dynstat_sss_del2             =   2.2379712691909E-02
(PID.TID 0000.0001) %MON forcing_qnet_max             =   8.7757785415688E+02
(PID.TID 0000.0001) %MON forcing_qnet_min             =  -4.8178566714570E+01
(PID.TID 0000.0001) %MON forcing_qnet_mean            =   3.0471020294980E+02
(PID.TID 0000.0001) %MON forcing_qnet_sd              =   2.3740134182753E+02
(PID.TID 0000.0001) %MON forcing_qnet_del2            =   2.3288916844372E+01
(PID.TID 0000.0001) %MON forcing_qsw_max              =   0.0000000000000E+00
(PID.TID 0000.0001) %MON forcing_qsw_min              =  -6.4029725065388E+01
(PID.TID 0000.0001) %MON forcing_qsw_mean             =  -1.5761012556020E+01
(PID.TID 0000.0001) %MON forcing_qsw_sd               =   2.2895610970377E+01
(PID.TID 0000.0001) %MON forcing_qsw_del2             =   1.2825572915443E+00
(PID.TID 0000.0001) %MON forcing_empmr_max            =  -2.2024488394949E-05
(PID.TID 0000.0001) %MON forcing_empmr_min            =  -2.5030882371316E-03
(PID.TID 0000.0001) %MON forcing_empmr_mean           =  -8.7286018079631E-04
(PID.TID 0000.0001) %MON forcing_empmr_sd             =   6.5916211052402E-04
(PID.TID 0000.0001) %MON forcing_empmr_del2           =   6.8343133406165E-05
(PID.TID 0000.0001) %MON forcing_fu_max               =   8.2449705965922E-02
(PID.TID 0000.0001) %MON forcing_fu_min               =  -4.5643015659722E-03
(PID.TID 0000.0001) %MON forcing_fu_mean              =   2.3899078456120E-02
(PID.TID 0000.0001) %MON forcing_fu_sd                =   2.3057844951398E-02
(PID.TID 0000.0001) %MON forcing_fu_del2              =   1.1391423709894E-03
(PID.TID 0000.0001) %MON forcing_fv_max               =   1.0574899648349E-02
(PID.TID 0000.0001) %MON forcing_fv_min               =  -6.0123845933366E-02
(PID.TID 0000.0001) %MON forcing_fv_mean              =  -8.4824988135775E-03
(PID.TID 0000.0001) %MON forcing_fv_sd                =   1.5018598111207E-02
(PID.TID 0000.0001) %MON forcing_fv_del2              =   6.8418942668500E-04
(PID.TID 0000.0001) %MON trAdv_CFL_u_max              =   2.2163711958700E-03
(PID.TID 0000.0001) %MON trAdv_CFL_v_max              =   1.0557716250876E-03
(PID.TID 0000.0001) %MON trAdv_CFL_w_max              =   4.8450178012404E-03
(PID.TID 0000.0001) %MON advcfl_uvel_max              =   2.2162586733713E-03
(PID.TID 0000.0001) %MON advcfl_vvel_max              =   1.0760200695977E-03
(PID.TID 0000.0001) %MON advcfl_wvel_max              =   5.5754293689602E-03
(PID.TID 0000.0001) %MON advcfl_W_hf_max              =   6.4330480162009E-03
(PID.TID 0000.0001) %MON pe_b_mean                    =   2.3921124307063E-05
(PID.TID 0000.0001) %MON ke_max                       =   4.4631903320663E-03
(PID.TID 0000.0001) %MON ke_mean                      =   5.2168680151895E-05
(PID.TID 0000.0001) %MON ke_vol                       =   5.3036189546438E+15
(PID.TID 0000.0001) %MON vort_r_min                   =  -5.9721178923246E-07
(PID.TID 0000.0001) %MON vort_r_max                   =   3.3649861780255E-07
(PID.TID 0000.0001) %MON vort_a_mean                  =   1.2067277722321E-04
(PID.TID 0000.0001) %MON vort_a_sd                    =   8.8117906427938E-06
(PID.TID 0000.0001) %MON vort_p_mean                  =   1.7734843345698E-04
(PID.TID 0000.0001) %MON vort_p_sd                    =   1.1690609195383E-04
(PID.TID 0000.0001) %MON surfExpan_theta_mean         =   1.7261661514171E-06
(PID.TID 0000.0001) %MON surfExpan_salt_mean          =  -1.4117347189453E-07
(PID.TID 0000.0001) // =======================================================
(PID.TID 0000.0001) // End MONITOR dynamic field statistics
(PID.TID 0000.0001) // =======================================================
(PID.TID 0000.0001) // =======================================================
(PID.TID 0000.0001) // Begin MONITOR SEAICE statistics
(PID.TID 0000.0001) // =======================================================
(PID.TID 0000.0001) %MON seaice_tsnumber              =                     4
(PID.TID 0000.0001) %MON seaice_time_sec              =   1.4400000000000E+04
(PID.TID 0000.0001) %MON seaice_uice_max              =   1.9254273513631E-01
(PID.TID 0000.0001) %MON seaice_uice_min              =  -6.6488417998430E-03
(PID.TID 0000.0001) %MON seaice_uice_mean             =   8.0935184531185E-02
(PID.TID 0000.0001) %MON seaice_uice_sd               =   6.5892549887525E-02
(PID.TID 0000.0001) %MON seaice_uice_del2             =   1.9785472135702E-03
(PID.TID 0000.0001) %MON seaice_vice_max              =   1.0425558922816E-01
(PID.TID 0000.0001) %MON seaice_vice_min              =  -1.5834559953056E-01
(PID.TID 0000.0001) %MON seaice_vice_mean             =  -2.4523431007815E-02
(PID.TID 0000.0001) %MON seaice_vice_sd               =   4.7798261348190E-02
(PID.TID 0000.0001) %MON seaice_vice_del2             =   1.2744975702928E-03
(PID.TID 0000.0001) %MON seaice_area_max              =   1.0000000000000E+00
(PID.TID 0000.0001) %MON seaice_area_min              =   0.0000000000000E+00
(PID.TID 0000.0001) %MON seaice_area_mean             =   6.4837602167687E-01
(PID.TID 0000.0001) %MON seaice_area_sd               =   4.7688265658995E-01
(PID.TID 0000.0001) %MON seaice_area_del2             =   3.5900586094261E-02
(PID.TID 0000.0001) %MON seaice_heff_max              =   5.7248360159363E-01
(PID.TID 0000.0001) %MON seaice_heff_min              =   0.0000000000000E+00
(PID.TID 0000.0001) %MON seaice_heff_mean             =   1.7858299420795E-01
(PID.TID 0000.0001) %MON seaice_heff_sd               =   1.8389314408282E-01
(PID.TID 0000.0001) %MON seaice_heff_del2             =   3.9772240429250E-03
(PID.TID 0000.0001) %MON seaice_hsnow_max             =   2.0013752400514E-01
(PID.TID 0000.0001) %MON seaice_hsnow_min             =   0.0000000000000E+00
(PID.TID 0000.0001) %MON seaice_hsnow_mean            =   6.3305606795257E-02
(PID.TID 0000.0001) %MON seaice_hsnow_sd              =   6.5176885218153E-02
(PID.TID 0000.0001) %MON seaice_hsnow_del2            =   1.4097372254527E-03
(PID.TID 0000.0001) %MON seaice_hsalt_max             =   5.0526304382266E+03
(PID.TID 0000.0001) %MON seaice_hsalt_min             =   0.0000000000000E+00
(PID.TID 0000.0001) %MON seaice_hsalt_mean            =   1.4692929420829E+03
(PID.TID 0000.0001) %MON seaice_hsalt_sd              =   1.5930736656033E+03
(PID.TID 0000.0001) %MON seaice_hsalt_del2            =   3.6109193891955E+01
(PID.TID 0000.0001) // =======================================================
(PID.TID 0000.0001) // End MONITOR SEAICE statistics
(PID.TID 0000.0001) // =======================================================
 Computing Diagnostic #     23  ETAN         Counter:       1   Parms: SM      M1      
(PID.TID 0000.0001)  MDS_WRITE_FIELD: it,rec,kS,kL,kH=       4    -1  46   1   1 file=diags/state_2d_set1.0000000004
 Computing Diagnostic #    294  SIarea       Counter:       1   Parms: SM      M1      
(PID.TID 0000.0001)  MDS_WRITE_FIELD: it,rec,kS,kL,kH=       4    -2  46   1   1 file=diags/state_2d_set1.0000000004
 Computing Diagnostic #    297  SIheff       Counter:       1   Parms: SM      M1      
(PID.TID 0000.0001)  MDS_WRITE_FIELD: it,rec,kS,kL,kH=       4    -3  46   1   1 file=diags/state_2d_set1.0000000004
 Computing Diagnostic #    299  SIhsnow      Counter:       1   Parms: SM      M1      
(PID.TID 0000.0001)  MDS_WRITE_FIELD: it,rec,kS,kL,kH=       4    -4  46   1   1 file=diags/state_2d_set1.0000000004
 Computing Diagnostic #     25  DETADT2      Counter:       1   Parms: SM      M1      
(PID.TID 0000.0001)  MDS_WRITE_FIELD: it,rec,kS,kL,kH=       4    -5  46   1   1 file=diags/state_2d_set1.0000000004
 Computing Diagnostic #     73  PHIBOT       Counter:       1   Parms: SM      M1      
(PID.TID 0000.0001)  MDS_WRITE_FIELD: it,rec,kS,kL,kH=       4    -6  46   1   1 file=diags/state_2d_set1.0000000004
 Computing Diagnostic #     82  sIceLoad     Counter:       1   Parms: SM      U1      
(PID.TID 0000.0001)  MDS_WRITE_FIELD: it,rec,kS,kL,kH=       4    -7  46   1   1 file=diags/state_2d_set1.0000000004
 Computing Diagnostic #     76  MXLDEPTH     Counter:       1   Parms: SM      M1      
(PID.TID 0000.0001)  MDS_WRITE_FIELD: it,rec,kS,kL,kH=       4    -8  46   1   1 file=diags/state_2d_set1.0000000004
 Computing Diagnostic #    325  SIatmFW      Counter:       1   Parms: SM      U1      
(PID.TID 0000.0001)  MDS_WRITE_FIELD: it,rec,kS,kL,kH=       4    -9  46   1   1 file=diags/state_2d_set1.0000000004
 Computing Diagnostic #     85  oceQnet      Counter:       1   Parms: SM      U1      
(PID.TID 0000.0001)  MDS_WRITE_FIELD: it,rec,kS,kL,kH=       4   -10  46   1   1 file=diags/state_2d_set1.0000000004
 Computing Diagnostic #     83  oceFWflx     Counter:       1   Parms: SM      U1      
(PID.TID 0000.0001)  MDS_WRITE_FIELD: it,rec,kS,kL,kH=       4   -11  46   1   1 file=diags/state_2d_set1.0000000004
 Computing Diagnostic #     79  oceTAUX      Counter:       1   Parms: UU      U1      
           Vector  Mate for  oceTAUX      Diagnostic #     80  oceTAUY  exists 
(PID.TID 0000.0001)  MDS_WRITE_FIELD: it,rec,kS,kL,kH=       4   -12  46   1   1 file=diags/state_2d_set1.0000000004
 Computing Diagnostic #     80  oceTAUY      Counter:       1   Parms: VV      U1      
           Vector  Mate for  oceTAUY      Diagnostic #     79  oceTAUX  exists 
(PID.TID 0000.0001)  MDS_WRITE_FIELD: it,rec,kS,kL,kH=       4   -13  46   1   1 file=diags/state_2d_set1.0000000004
 Computing Diagnostic #    311  SIuice       Counter:       1   Parms: UU      M1      
           Vector  Mate for  SIuice       Diagnostic #    312  SIvice   exists 
(PID.TID 0000.0001)  MDS_WRITE_FIELD: it,rec,kS,kL,kH=       4   -14  46   1   1 file=diags/state_2d_set1.0000000004
 Computing Diagnostic #    312  SIvice       Counter:       1   Parms: VV      M1      
           Vector  Mate for  SIvice       Diagnostic #    311  SIuice   exists 
(PID.TID 0000.0001)  MDS_WRITE_FIELD: it,rec,kS,kL,kH=       4   -15  46   1   1 file=diags/state_2d_set1.0000000004
 Computing Diagnostic #     24  ETANSQ       Counter:       1   Parms: SM P    M1      
(PID.TID 0000.0001)  MDS_WRITE_FIELD: it,rec,kS,kL,kH=       4   -16  46   1   1 file=diags/state_2d_set1.0000000004
 Computing Diagnostic #     26  THETA        Counter:       1   Parms: SMR     MR      
(PID.TID 0000.0001)  MDS_WRITE_FIELD: it,rec,kS,kL,kH=       4    -1  46   1  23 file=diags/state_3d_set1.0000000004
 Computing Diagnostic #     27  SALT         Counter:       1   Parms: SMR     MR      
(PID.TID 0000.0001)  MDS_WRITE_FIELD: it,rec,kS,kL,kH=       4    -2  46   1  23 file=diags/state_3d_set1.0000000004
 Computing Diagnostic #     45  UVELMASS     Counter:       1   Parms: UUr     MR      
           Vector  Mate for  UVELMASS     Diagnostic #     46  VVELMASS exists 
(PID.TID 0000.0001)  MDS_WRITE_FIELD: it,rec,kS,kL,kH=       4    -1  46   1  23 file=diags/trsp_3d_set1.0000000004
 Computing Diagnostic #     46  VVELMASS     Counter:       1   Parms: VVr     MR      
           Vector  Mate for  VVELMASS     Diagnostic #     45  UVELMASS exists 
(PID.TID 0000.0001)  MDS_WRITE_FIELD: it,rec,kS,kL,kH=       4    -2  46   1  23 file=diags/trsp_3d_set1.0000000004
 Computing Diagnostic #    224  EXFpreci     Counter:       1   Parms: SM      U1      
(PID.TID 0000.0001)  MDS_WRITE_FIELD: it,rec,kS,kL,kH=       4    -1  46   1   1 file=diags/exf_zflux_set1.0000000004
 Computing Diagnostic #    223  EXFevap      Counter:       1   Parms: SM      U1      
(PID.TID 0000.0001)  MDS_WRITE_FIELD: it,rec,kS,kL,kH=       4    -2  46   1   1 file=diags/exf_zflux_set1.0000000004
 Computing Diagnostic #    228  EXFroff      Counter:       1   Parms: SM      U1      
(PID.TID 0000.0001)  MDS_WRITE_FIELD: it,rec,kS,kL,kH=       4    -3  46   1   1 file=diags/exf_zflux_set1.0000000004
 Computing Diagnostic #    226  EXFempmr     Counter:       1   Parms: SM      U1      
(PID.TID 0000.0001)  MDS_WRITE_FIELD: it,rec,kS,kL,kH=       4    -4  46   1   1 file=diags/exf_zflux_set1.0000000004
 Computing Diagnostic #    212  EXFswdn      Counter:       1   Parms: SM      U1      
(PID.TID 0000.0001)  MDS_WRITE_FIELD: it,rec,kS,kL,kH=       4    -5  46   1   1 file=diags/exf_zflux_set1.0000000004
 Computing Diagnostic #    211  EXFlwdn      Counter:       1   Parms: SM      U1      
(PID.TID 0000.0001)  MDS_WRITE_FIELD: it,rec,kS,kL,kH=       4    -6  46   1   1 file=diags/exf_zflux_set1.0000000004
 Computing Diagnostic #    210  EXFswnet     Counter:       1   Parms: SM      U1      
(PID.TID 0000.0001)  MDS_WRITE_FIELD: it,rec,kS,kL,kH=       4    -7  46   1   1 file=diags/exf_zflux_set1.0000000004
 Computing Diagnostic #    209  EXFlwnet     Counter:       1   Parms: SM      U1      
(PID.TID 0000.0001)  MDS_WRITE_FIELD: it,rec,kS,kL,kH=       4    -8  46   1   1 file=diags/exf_zflux_set1.0000000004
 Computing Diagnostic #    213  EXFqnet      Counter:       1   Parms: SM      U1      
(PID.TID 0000.0001)  MDS_WRITE_FIELD: it,rec,kS,kL,kH=       4    -9  46   1   1 file=diags/exf_zflux_set1.0000000004
 Computing Diagnostic #    221  EXFatemp     Counter:       1   Parms: SM      U1      
(PID.TID 0000.0001)  MDS_WRITE_FIELD: it,rec,kS,kL,kH=       4   -10  46   1   1 file=diags/exf_zflux_set1.0000000004
 Computing Diagnostic #    222  EXFaqh       Counter:       1   Parms: SM      U1      
(PID.TID 0000.0001)  MDS_WRITE_FIELD: it,rec,kS,kL,kH=       4   -11  46   1   1 file=diags/exf_zflux_set1.0000000004
 Computing Diagnostic #    214  EXFtaux      Counter:       1   Parms: UM      U1      
(PID.TID 0000.0001)  MDS_WRITE_FIELD: it,rec,kS,kL,kH=       4   -12  46   1   1 file=diags/exf_zflux_set1.0000000004
 Computing Diagnostic #    215  EXFtauy      Counter:       1   Parms: VM      U1      
(PID.TID 0000.0001)  MDS_WRITE_FIELD: it,rec,kS,kL,kH=       4   -13  46   1   1 file=diags/exf_zflux_set1.0000000004
 Computing Diagnostic #    216  EXFuwind     Counter:       1   Parms: UM      U1      
(PID.TID 0000.0001)  MDS_WRITE_FIELD: it,rec,kS,kL,kH=       4   -14  46   1   1 file=diags/exf_zflux_set1.0000000004
 Computing Diagnostic #    217  EXFvwind     Counter:       1   Parms: VM      U1      
(PID.TID 0000.0001)  MDS_WRITE_FIELD: it,rec,kS,kL,kH=       4   -15  46   1   1 file=diags/exf_zflux_set1.0000000004
 Computing Diagnostic #    227  EXFpress     Counter:       1   Parms: SM      U1      
(PID.TID 0000.0001)  MDS_WRITE_FIELD: it,rec,kS,kL,kH=       4   -16  46   1   1 file=diags/exf_zflux_set1.0000000004
 Computing Diagnostic #    207  EXFhs        Counter:       1   Parms: SM      U1      
(PID.TID 0000.0001)  MDS_WRITE_FIELD: it,rec,kS,kL,kH=       4   -17  46   1   1 file=diags/exf_zflux_set1.0000000004
 Computing Diagnostic #    208  EXFhl        Counter:       1   Parms: SM      U1      
(PID.TID 0000.0001)  MDS_WRITE_FIELD: it,rec,kS,kL,kH=       4   -18  46   1   1 file=diags/exf_zflux_set1.0000000004
(PID.TID 0000.0001)  write diagnostics summary to file: diagnostics_status.0000000004.txt
(PID.TID 0000.0001)  MDS_WRITE_FIELD: it,rec,kS,kL,kH=       4     1  23   1  23 file=pickup_cd.0000000004
(PID.TID 0000.0001)  MDS_WRITE_FIELD: it,rec,kS,kL,kH=       4     2  23   1  23 file=pickup_cd.0000000004
(PID.TID 0000.0001)  MDS_WRITE_FIELD: it,rec,kS,kL,kH=       4     3  23   1  23 file=pickup_cd.0000000004
(PID.TID 0000.0001)  MDS_WRITE_FIELD: it,rec,kS,kL,kH=       4     4  23   1  23 file=pickup_cd.0000000004
(PID.TID 0000.0001)  MDS_WRITE_FIELD: it,rec,kS,kL,kH=       4    93   1   1   1 file=pickup_cd.0000000004
(PID.TID 0000.0001)  MDS_WRITE_FIELD: it,rec,kS,kL,kH=       4    -1   7   1   7 file=pickup_seaice.0000000004
(PID.TID 0000.0001)  MDS_WRITE_FIELD: it,rec,kS,kL,kH=       4    -8   1   1   1 file=pickup_seaice.0000000004
(PID.TID 0000.0001)  MDS_WRITE_FIELD: it,rec,kS,kL,kH=       4    -9   1   1   1 file=pickup_seaice.0000000004
(PID.TID 0000.0001)  MDS_WRITE_FIELD: it,rec,kS,kL,kH=       4   -10   1   1   1 file=pickup_seaice.0000000004
(PID.TID 0000.0001)  MDS_WRITE_FIELD: it,rec,kS,kL,kH=       4   -11   1   1   1 file=pickup_seaice.0000000004
(PID.TID 0000.0001)  MDS_WRITE_FIELD: it,rec,kS,kL,kH=       4   -12   1   1   1 file=pickup_seaice.0000000004
(PID.TID 0000.0001)  MDS_WRITE_FIELD: it,rec,kS,kL,kH=       4   -13   1   1   1 file=pickup_seaice.0000000004
(PID.TID 0000.0001)  MDS_WRITE_FIELD: it,rec,kS,kL,kH=       4    -1  23   1  23 file=pickup.0000000004
(PID.TID 0000.0001)  MDS_WRITE_FIELD: it,rec,kS,kL,kH=       4    -2  23   1  23 file=pickup.0000000004
(PID.TID 0000.0001)  MDS_WRITE_FIELD: it,rec,kS,kL,kH=       4    -3  23   1  23 file=pickup.0000000004
(PID.TID 0000.0001)  MDS_WRITE_FIELD: it,rec,kS,kL,kH=       4    -4  23   1  23 file=pickup.0000000004
(PID.TID 0000.0001)  MDS_WRITE_FIELD: it,rec,kS,kL,kH=       4    -5  23   1  23 file=pickup.0000000004
(PID.TID 0000.0001)  MDS_WRITE_FIELD: it,rec,kS,kL,kH=       4    -6  23   1  23 file=pickup.0000000004
(PID.TID 0000.0001)  MDS_WRITE_FIELD: it,rec,kS,kL,kH=       4  -139   1   1   1 file=pickup.0000000004
(PID.TID 0000.0001)  MDS_WRITE_FIELD: it,rec,kS,kL,kH=       4  -140   1   1   1 file=pickup.0000000004
(PID.TID 0000.0001)  MDS_WRITE_FIELD: it,rec,kS,kL,kH=       4  -141   1   1   1 file=pickup.0000000004
(PID.TID 0000.0001) %CHECKPOINT         4 0000000004
(PID.TID 0000.0001) ADWRITE: tid,vid, irec, length, prec(x2)=    39     1     2      672  8 64 fname=tapelev3_1_the_main_loop_etan
(PID.TID 0000.0001) ADWRITE:  tapeFileCounter =     1
(PID.TID 0000.0001) ADWRITE: tid,vid, irec, length, prec(x2)=    39     2     2      672  8 64 fname=tapelev3_2_the_main_loop_taux0
(PID.TID 0000.0001) ADWRITE:  tapeFileCounter =     2
(PID.TID 0000.0001) ADWRITE: tid,vid, irec, length, prec(x2)=    39     3     2      672  8 64 fname=tapelev3_3_the_main_loop_taux1
(PID.TID 0000.0001) ADWRITE:  tapeFileCounter =     3
(PID.TID 0000.0001) ADWRITE: tid,vid, irec, length, prec(x2)=    39     4     2      672  8 64 fname=tapelev3_4_the_main_loop_tauy0
(PID.TID 0000.0001) ADWRITE:  tapeFileCounter =     4
(PID.TID 0000.0001) ADWRITE: tid,vid, irec, length, prec(x2)=    39     5     2      672  8 64 fname=tapelev3_5_the_main_loop_tauy1
(PID.TID 0000.0001) ADWRITE:  tapeFileCounter =     5
(PID.TID 0000.0001) ADWRITE: tid,vid, irec, length, prec(x2)=    39     6     2      672  8 64 fname=tapelev3_6_the_main_loop_qnet0
(PID.TID 0000.0001) ADWRITE:  tapeFileCounter =     6
(PID.TID 0000.0001) ADWRITE: tid,vid, irec, length, prec(x2)=    39     7     2      672  8 64 fname=tapelev3_7_the_main_loop_qnet1
(PID.TID 0000.0001) ADWRITE:  tapeFileCounter =     7
(PID.TID 0000.0001) ADWRITE: tid,vid, irec, length, prec(x2)=    39     8     2      672  8 64 fname=tapelev3_8_the_main_loop_empmr0
(PID.TID 0000.0001) ADWRITE:  tapeFileCounter =     8
(PID.TID 0000.0001) ADWRITE: tid,vid, irec, length, prec(x2)=    39     9     2      672  8 64 fname=tapelev3_9_the_main_loop_empmr1
(PID.TID 0000.0001) ADWRITE:  tapeFileCounter =     9
(PID.TID 0000.0001) ADWRITE: tid,vid, irec, length, prec(x2)=    39    10     2      672  8 64 fname=tapelev3_10_the_main_loop_sst0
(PID.TID 0000.0001) ADWRITE:  tapeFileCounter =    10
(PID.TID 0000.0001) ADWRITE: tid,vid, irec, length, prec(x2)=    39    11     2      672  8 64 fname=tapelev3_11_the_main_loop_sst1
(PID.TID 0000.0001) ADWRITE:  tapeFileCounter =    11
(PID.TID 0000.0001) ADWRITE: tid,vid, irec, length, prec(x2)=    39    12     2      672  8 64 fname=tapelev3_12_the_main_loop_sss0
(PID.TID 0000.0001) ADWRITE:  tapeFileCounter =    12
(PID.TID 0000.0001) ADWRITE: tid,vid, irec, length, prec(x2)=    39    13     2      672  8 64 fname=tapelev3_13_the_main_loop_sss1
(PID.TID 0000.0001) ADWRITE:  tapeFileCounter =    13
(PID.TID 0000.0001) ADWRITE: tid,vid, irec, length, prec(x2)=    39    14     2      672  8 64 fname=tapelev3_14_the_main_loop_saltflux0
(PID.TID 0000.0001) ADWRITE:  tapeFileCounter =    14
(PID.TID 0000.0001) ADWRITE: tid,vid, irec, length, prec(x2)=    39    15     2      672  8 64 fname=tapelev3_15_the_main_loop_saltflux1
(PID.TID 0000.0001) ADWRITE:  tapeFileCounter =    15
(PID.TID 0000.0001) ADWRITE: tid,vid, irec, length, prec(x2)=    39    16     2      672  8 64 fname=tapelev3_16_the_main_loop_qsw0
(PID.TID 0000.0001) ADWRITE:  tapeFileCounter =    16
(PID.TID 0000.0001) ADWRITE: tid,vid, irec, length, prec(x2)=    39    17     2      672  8 64 fname=tapelev3_17_the_main_loop_qsw1
(PID.TID 0000.0001) ADWRITE:  tapeFileCounter =    17
(PID.TID 0000.0001) ADWRITE: tid,vid, irec, length, prec(x2)=    39    18     2      672  8 64 fname=tapelev3_18_the_main_loop_pload0
(PID.TID 0000.0001) ADWRITE:  tapeFileCounter =    18
(PID.TID 0000.0001) ADWRITE: tid,vid, irec, length, prec(x2)=    39    19     2      672  8 64 fname=tapelev3_19_the_main_loop_pload1
(PID.TID 0000.0001) ADWRITE:  tapeFileCounter =    19
(PID.TID 0000.0001) ADWRITE: tid,vid, irec, length, prec(x2)=    39    20     2      672  8 64 fname=tapelev3_20_the_main_loop_etah
(PID.TID 0000.0001) ADWRITE:  tapeFileCounter =    20
(PID.TID 0000.0001) ADWRITE: tid,vid, irec, length, prec(x2)=    39    21     2      672  8 64 fname=tapelev3_21_the_main_loop_detahdt
(PID.TID 0000.0001) ADWRITE:  tapeFileCounter =    21
(PID.TID 0000.0001) ADWRITE: tid,vid, irec, length, prec(x2)=    39    22     2      672  8 64 fname=tapelev3_22_the_main_loop_pmepr
(PID.TID 0000.0001) ADWRITE:  tapeFileCounter =    22
(PID.TID 0000.0001) ADWRITE: tid,vid, irec, length, prec(x2)=    39    23     2    15456  8 64 fname=tapelev3_23_the_main_loop_gtnm1
(PID.TID 0000.0001) ADWRITE:  tapeFileCounter =    23
(PID.TID 0000.0001) ADWRITE:  tapeFileCounter =    24
(PID.TID 0000.0001) ADWRITE:  tapeFileCounter =    25
(PID.TID 0000.0001) ADWRITE:  tapeFileCounter =    26
(PID.TID 0000.0001) ADWRITE:  tapeFileCounter =    27
(PID.TID 0000.0001) ADWRITE:  tapeFileCounter =    28
(PID.TID 0000.0001) ADWRITE:  tapeFileCounter =    29
(PID.TID 0000.0001) ADWRITE:  tapeFileCounter =    30
(PID.TID 0000.0001) ADWRITE:  tapeFileCounter =    31
(PID.TID 0000.0001) ADWRITE:  tapeFileCounter =    32
(PID.TID 0000.0001) ADWRITE:  tapeFileCounter =    33
(PID.TID 0000.0001) ADWRITE:  tapeFileCounter =    34
(PID.TID 0000.0001) ADWRITE:  tapeFileCounter =    35
(PID.TID 0000.0001) ADWRITE:  tapeFileCounter =    36
(PID.TID 0000.0001) ADWRITE:  tapeFileCounter =    37
(PID.TID 0000.0001) ADWRITE:  tapeFileCounter =    38
(PID.TID 0000.0001) ADWRITE:  tapeFileCounter =    39
(PID.TID 0000.0001) ADWRITE:  tapeFileCounter =    40
(PID.TID 0000.0001) ADWRITE:  tapeFileCounter =    41
(PID.TID 0000.0001) ADWRITE:  tapeFileCounter =    42
(PID.TID 0000.0001) ADWRITE:  tapeFileCounter =    43
(PID.TID 0000.0001) ADWRITE:  tapeFileCounter =    44
(PID.TID 0000.0001) ADWRITE:  tapeFileCounter =    45
(PID.TID 0000.0001) ADWRITE: tid,vid, irec, length, prec(x2)=    39    24     2    15456  8 64 fname=tapelev3_24_the_main_loop_gsnm1
(PID.TID 0000.0001) ADWRITE:  tapeFileCounter =    46
(PID.TID 0000.0001) ADWRITE:  tapeFileCounter =    47
(PID.TID 0000.0001) ADWRITE:  tapeFileCounter =    48
(PID.TID 0000.0001) ADWRITE:  tapeFileCounter =    49
(PID.TID 0000.0001) ADWRITE:  tapeFileCounter =    50
(PID.TID 0000.0001) ADWRITE:  tapeFileCounter =    51
(PID.TID 0000.0001) ADWRITE:  tapeFileCounter =    52
(PID.TID 0000.0001) ADWRITE:  tapeFileCounter =    53
(PID.TID 0000.0001) ADWRITE:  tapeFileCounter =    54
(PID.TID 0000.0001) ADWRITE:  tapeFileCounter =    55
(PID.TID 0000.0001) ADWRITE:  tapeFileCounter =    56
(PID.TID 0000.0001) ADWRITE:  tapeFileCounter =    57
(PID.TID 0000.0001) ADWRITE:  tapeFileCounter =    58
(PID.TID 0000.0001) ADWRITE:  tapeFileCounter =    59
(PID.TID 0000.0001) ADWRITE:  tapeFileCounter =    60
(PID.TID 0000.0001) ADWRITE:  tapeFileCounter =    61
(PID.TID 0000.0001) ADWRITE:  tapeFileCounter =    62
(PID.TID 0000.0001) ADWRITE:  tapeFileCounter =    63
(PID.TID 0000.0001) ADWRITE:  tapeFileCounter =    64
(PID.TID 0000.0001) ADWRITE:  tapeFileCounter =    65
(PID.TID 0000.0001) ADWRITE:  tapeFileCounter =    66
(PID.TID 0000.0001) ADWRITE:  tapeFileCounter =    67
(PID.TID 0000.0001) ADWRITE:  tapeFileCounter =    68
(PID.TID 0000.0001) ADWRITE: tid,vid, irec, length, prec(x2)=    39    25     2    15456  8 64 fname=tapelev3_25_the_main_loop_gunm1
(PID.TID 0000.0001) ADWRITE:  tapeFileCounter =    69
(PID.TID 0000.0001) ADWRITE:  tapeFileCounter =    70
(PID.TID 0000.0001) ADWRITE:  tapeFileCounter =    71
(PID.TID 0000.0001) ADWRITE:  tapeFileCounter =    72
(PID.TID 0000.0001) ADWRITE:  tapeFileCounter =    73
(PID.TID 0000.0001) ADWRITE:  tapeFileCounter =    74
(PID.TID 0000.0001) ADWRITE:  tapeFileCounter =    75
(PID.TID 0000.0001) ADWRITE:  tapeFileCounter =    76
(PID.TID 0000.0001) ADWRITE:  tapeFileCounter =    77
(PID.TID 0000.0001) ADWRITE:  tapeFileCounter =    78
(PID.TID 0000.0001) ADWRITE:  tapeFileCounter =    79
(PID.TID 0000.0001) ADWRITE:  tapeFileCounter =    80
(PID.TID 0000.0001) ADWRITE:  tapeFileCounter =    81
(PID.TID 0000.0001) ADWRITE:  tapeFileCounter =    82
(PID.TID 0000.0001) ADWRITE:  tapeFileCounter =    83
(PID.TID 0000.0001) ADWRITE:  tapeFileCounter =    84
(PID.TID 0000.0001) ADWRITE:  tapeFileCounter =    85
(PID.TID 0000.0001) ADWRITE:  tapeFileCounter =    86
(PID.TID 0000.0001) ADWRITE:  tapeFileCounter =    87
(PID.TID 0000.0001) ADWRITE:  tapeFileCounter =    88
(PID.TID 0000.0001) ADWRITE:  tapeFileCounter =    89
(PID.TID 0000.0001) ADWRITE:  tapeFileCounter =    90
(PID.TID 0000.0001) ADWRITE:  tapeFileCounter =    91
(PID.TID 0000.0001) ADWRITE: tid,vid, irec, length, prec(x2)=    39    26     2    15456  8 64 fname=tapelev3_26_the_main_loop_gvnm1
(PID.TID 0000.0001) ADWRITE:  tapeFileCounter =    92
(PID.TID 0000.0001) ADWRITE:  tapeFileCounter =    93
(PID.TID 0000.0001) ADWRITE:  tapeFileCounter =    94
(PID.TID 0000.0001) ADWRITE:  tapeFileCounter =    95
(PID.TID 0000.0001) ADWRITE:  tapeFileCounter =    96
(PID.TID 0000.0001) ADWRITE:  tapeFileCounter =    97
(PID.TID 0000.0001) ADWRITE:  tapeFileCounter =    98
(PID.TID 0000.0001) ADWRITE:  tapeFileCounter =    99
(PID.TID 0000.0001) ADWRITE:  tapeFileCounter =   100
(PID.TID 0000.0001) ADWRITE:  tapeFileCounter =   101
(PID.TID 0000.0001) ADWRITE:  tapeFileCounter =   102
(PID.TID 0000.0001) ADWRITE:  tapeFileCounter =   103
(PID.TID 0000.0001) ADWRITE:  tapeFileCounter =   104
(PID.TID 0000.0001) ADWRITE:  tapeFileCounter =   105
(PID.TID 0000.0001) ADWRITE:  tapeFileCounter =   106
(PID.TID 0000.0001) ADWRITE:  tapeFileCounter =   107
(PID.TID 0000.0001) ADWRITE:  tapeFileCounter =   108
(PID.TID 0000.0001) ADWRITE:  tapeFileCounter =   109
(PID.TID 0000.0001) ADWRITE:  tapeFileCounter =   110
(PID.TID 0000.0001) ADWRITE:  tapeFileCounter =   111
(PID.TID 0000.0001) ADWRITE:  tapeFileCounter =   112
(PID.TID 0000.0001) ADWRITE:  tapeFileCounter =   113
(PID.TID 0000.0001) ADWRITE:  tapeFileCounter =   114
(PID.TID 0000.0001) ADWRITE: tid,vid, irec, length, prec(x2)=    39    27     2    15456  8 64 fname=tapelev3_27_the_main_loop_theta
(PID.TID 0000.0001) ADWRITE:  tapeFileCounter =   115
(PID.TID 0000.0001) ADWRITE:  tapeFileCounter =   116
(PID.TID 0000.0001) ADWRITE:  tapeFileCounter =   117
(PID.TID 0000.0001) ADWRITE:  tapeFileCounter =   118
(PID.TID 0000.0001) ADWRITE:  tapeFileCounter =   119
(PID.TID 0000.0001) ADWRITE:  tapeFileCounter =   120
(PID.TID 0000.0001) ADWRITE:  tapeFileCounter =   121
(PID.TID 0000.0001) ADWRITE:  tapeFileCounter =   122
(PID.TID 0000.0001) ADWRITE:  tapeFileCounter =   123
(PID.TID 0000.0001) ADWRITE:  tapeFileCounter =   124
(PID.TID 0000.0001) ADWRITE:  tapeFileCounter =   125
(PID.TID 0000.0001) ADWRITE:  tapeFileCounter =   126
(PID.TID 0000.0001) ADWRITE:  tapeFileCounter =   127
(PID.TID 0000.0001) ADWRITE:  tapeFileCounter =   128
(PID.TID 0000.0001) ADWRITE:  tapeFileCounter =   129
(PID.TID 0000.0001) ADWRITE:  tapeFileCounter =   130
(PID.TID 0000.0001) ADWRITE:  tapeFileCounter =   131
(PID.TID 0000.0001) ADWRITE:  tapeFileCounter =   132
(PID.TID 0000.0001) ADWRITE:  tapeFileCounter =   133
(PID.TID 0000.0001) ADWRITE:  tapeFileCounter =   134
(PID.TID 0000.0001) ADWRITE:  tapeFileCounter =   135
(PID.TID 0000.0001) ADWRITE:  tapeFileCounter =   136
(PID.TID 0000.0001) ADWRITE:  tapeFileCounter =   137
(PID.TID 0000.0001) ADWRITE: tid,vid, irec, length, prec(x2)=    39    28     2    15456  8 64 fname=tapelev3_28_the_main_loop_salt
(PID.TID 0000.0001) ADWRITE:  tapeFileCounter =   138
(PID.TID 0000.0001) ADWRITE:  tapeFileCounter =   139
(PID.TID 0000.0001) ADWRITE:  tapeFileCounter =   140
(PID.TID 0000.0001) ADWRITE:  tapeFileCounter =   141
(PID.TID 0000.0001) ADWRITE:  tapeFileCounter =   142
(PID.TID 0000.0001) ADWRITE:  tapeFileCounter =   143
(PID.TID 0000.0001) ADWRITE:  tapeFileCounter =   144
(PID.TID 0000.0001) ADWRITE:  tapeFileCounter =   145
(PID.TID 0000.0001) ADWRITE:  tapeFileCounter =   146
(PID.TID 0000.0001) ADWRITE:  tapeFileCounter =   147
(PID.TID 0000.0001) ADWRITE:  tapeFileCounter =   148
(PID.TID 0000.0001) ADWRITE:  tapeFileCounter =   149
(PID.TID 0000.0001) ADWRITE:  tapeFileCounter =   150
(PID.TID 0000.0001) ADWRITE:  tapeFileCounter =   151
(PID.TID 0000.0001) ADWRITE:  tapeFileCounter =   152
(PID.TID 0000.0001) ADWRITE:  tapeFileCounter =   153
(PID.TID 0000.0001) ADWRITE:  tapeFileCounter =   154
(PID.TID 0000.0001) ADWRITE:  tapeFileCounter =   155
(PID.TID 0000.0001) ADWRITE:  tapeFileCounter =   156
(PID.TID 0000.0001) ADWRITE:  tapeFileCounter =   157
(PID.TID 0000.0001) ADWRITE:  tapeFileCounter =   158
(PID.TID 0000.0001) ADWRITE:  tapeFileCounter =   159
(PID.TID 0000.0001) ADWRITE:  tapeFileCounter =   160
(PID.TID 0000.0001) ADWRITE: tid,vid, irec, length, prec(x2)=    39    29     2    15456  8 64 fname=tapelev3_29_the_main_loop_uvel
(PID.TID 0000.0001) ADWRITE:  tapeFileCounter =   161
(PID.TID 0000.0001) ADWRITE:  tapeFileCounter =   162
(PID.TID 0000.0001) ADWRITE:  tapeFileCounter =   163
(PID.TID 0000.0001) ADWRITE:  tapeFileCounter =   164
(PID.TID 0000.0001) ADWRITE:  tapeFileCounter =   165
(PID.TID 0000.0001) ADWRITE:  tapeFileCounter =   166
(PID.TID 0000.0001) ADWRITE:  tapeFileCounter =   167
(PID.TID 0000.0001) ADWRITE:  tapeFileCounter =   168
(PID.TID 0000.0001) ADWRITE:  tapeFileCounter =   169
(PID.TID 0000.0001) ADWRITE:  tapeFileCounter =   170
(PID.TID 0000.0001) ADWRITE:  tapeFileCounter =   171
(PID.TID 0000.0001) ADWRITE:  tapeFileCounter =   172
(PID.TID 0000.0001) ADWRITE:  tapeFileCounter =   173
(PID.TID 0000.0001) ADWRITE:  tapeFileCounter =   174
(PID.TID 0000.0001) ADWRITE:  tapeFileCounter =   175
(PID.TID 0000.0001) ADWRITE:  tapeFileCounter =   176
(PID.TID 0000.0001) ADWRITE:  tapeFileCounter =   177
(PID.TID 0000.0001) ADWRITE:  tapeFileCounter =   178
(PID.TID 0000.0001) ADWRITE:  tapeFileCounter =   179
(PID.TID 0000.0001) ADWRITE:  tapeFileCounter =   180
(PID.TID 0000.0001) ADWRITE:  tapeFileCounter =   181
(PID.TID 0000.0001) ADWRITE:  tapeFileCounter =   182
(PID.TID 0000.0001) ADWRITE:  tapeFileCounter =   183
(PID.TID 0000.0001) ADWRITE: tid,vid, irec, length, prec(x2)=    39    30     2    15456  8 64 fname=tapelev3_30_the_main_loop_vvel
(PID.TID 0000.0001) ADWRITE:  tapeFileCounter =   184
(PID.TID 0000.0001) ADWRITE:  tapeFileCounter =   185
(PID.TID 0000.0001) ADWRITE:  tapeFileCounter =   186
(PID.TID 0000.0001) ADWRITE:  tapeFileCounter =   187
(PID.TID 0000.0001) ADWRITE:  tapeFileCounter =   188
(PID.TID 0000.0001) ADWRITE:  tapeFileCounter =   189
(PID.TID 0000.0001) ADWRITE:  tapeFileCounter =   190
(PID.TID 0000.0001) ADWRITE:  tapeFileCounter =   191
(PID.TID 0000.0001) ADWRITE:  tapeFileCounter =   192
(PID.TID 0000.0001) ADWRITE:  tapeFileCounter =   193
(PID.TID 0000.0001) ADWRITE:  tapeFileCounter =   194
(PID.TID 0000.0001) ADWRITE:  tapeFileCounter =   195
(PID.TID 0000.0001) ADWRITE:  tapeFileCounter =   196
(PID.TID 0000.0001) ADWRITE:  tapeFileCounter =   197
(PID.TID 0000.0001) ADWRITE:  tapeFileCounter =   198
(PID.TID 0000.0001) ADWRITE:  tapeFileCounter =   199
(PID.TID 0000.0001) ADWRITE:  tapeFileCounter =   200
(PID.TID 0000.0001) ADWRITE:  tapeFileCounter =   201
(PID.TID 0000.0001) ADWRITE:  tapeFileCounter =   202
(PID.TID 0000.0001) ADWRITE:  tapeFileCounter =   203
(PID.TID 0000.0001) ADWRITE:  tapeFileCounter =   204
(PID.TID 0000.0001) ADWRITE:  tapeFileCounter =   205
(PID.TID 0000.0001) ADWRITE:  tapeFileCounter =   206
(PID.TID 0000.0001) ADWRITE: tid,vid, irec, length, prec(x2)=    39    31     2    15456  8 64 fname=tapelev3_31_the_main_loop_wvel
(PID.TID 0000.0001) ADWRITE:  tapeFileCounter =   207
(PID.TID 0000.0001) ADWRITE:  tapeFileCounter =   208
(PID.TID 0000.0001) ADWRITE:  tapeFileCounter =   209
(PID.TID 0000.0001) ADWRITE:  tapeFileCounter =   210
(PID.TID 0000.0001) ADWRITE:  tapeFileCounter =   211
(PID.TID 0000.0001) ADWRITE:  tapeFileCounter =   212
(PID.TID 0000.0001) ADWRITE:  tapeFileCounter =   213
(PID.TID 0000.0001) ADWRITE:  tapeFileCounter =   214
(PID.TID 0000.0001) ADWRITE:  tapeFileCounter =   215
(PID.TID 0000.0001) ADWRITE:  tapeFileCounter =   216
(PID.TID 0000.0001) ADWRITE:  tapeFileCounter =   217
(PID.TID 0000.0001) ADWRITE:  tapeFileCounter =   218
(PID.TID 0000.0001) ADWRITE:  tapeFileCounter =   219
(PID.TID 0000.0001) ADWRITE:  tapeFileCounter =   220
(PID.TID 0000.0001) ADWRITE:  tapeFileCounter =   221
(PID.TID 0000.0001) ADWRITE:  tapeFileCounter =   222
(PID.TID 0000.0001) ADWRITE:  tapeFileCounter =   223
(PID.TID 0000.0001) ADWRITE:  tapeFileCounter =   224
(PID.TID 0000.0001) ADWRITE:  tapeFileCounter =   225
(PID.TID 0000.0001) ADWRITE:  tapeFileCounter =   226
(PID.TID 0000.0001) ADWRITE:  tapeFileCounter =   227
(PID.TID 0000.0001) ADWRITE:  tapeFileCounter =   228
(PID.TID 0000.0001) ADWRITE:  tapeFileCounter =   229
(PID.TID 0000.0001) ADWRITE: tid,vid, irec, length, prec(x2)=    39    32     2    15456  8 64 fname=tapelev3_32_the_main_loop_totphihyd
(PID.TID 0000.0001) ADWRITE:  tapeFileCounter =   230
(PID.TID 0000.0001) ADWRITE:  tapeFileCounter =   231
(PID.TID 0000.0001) ADWRITE:  tapeFileCounter =   232
(PID.TID 0000.0001) ADWRITE:  tapeFileCounter =   233
(PID.TID 0000.0001) ADWRITE:  tapeFileCounter =   234
(PID.TID 0000.0001) ADWRITE:  tapeFileCounter =   235
(PID.TID 0000.0001) ADWRITE:  tapeFileCounter =   236
(PID.TID 0000.0001) ADWRITE:  tapeFileCounter =   237
(PID.TID 0000.0001) ADWRITE:  tapeFileCounter =   238
(PID.TID 0000.0001) ADWRITE:  tapeFileCounter =   239
(PID.TID 0000.0001) ADWRITE:  tapeFileCounter =   240
(PID.TID 0000.0001) ADWRITE:  tapeFileCounter =   241
(PID.TID 0000.0001) ADWRITE:  tapeFileCounter =   242
(PID.TID 0000.0001) ADWRITE:  tapeFileCounter =   243
(PID.TID 0000.0001) ADWRITE:  tapeFileCounter =   244
(PID.TID 0000.0001) ADWRITE:  tapeFileCounter =   245
(PID.TID 0000.0001) ADWRITE:  tapeFileCounter =   246
(PID.TID 0000.0001) ADWRITE:  tapeFileCounter =   247
(PID.TID 0000.0001) ADWRITE:  tapeFileCounter =   248
(PID.TID 0000.0001) ADWRITE:  tapeFileCounter =   249
(PID.TID 0000.0001) ADWRITE:  tapeFileCounter =   250
(PID.TID 0000.0001) ADWRITE:  tapeFileCounter =   251
(PID.TID 0000.0001) ADWRITE:  tapeFileCounter =   252
(PID.TID 0000.0001) ADWRITE: tid,vid, irec, length, prec(x2)=    39    35     2    15456  8 64 fname=tapelev3_35_the_main_loop_uveld
(PID.TID 0000.0001) ADWRITE:  tapeFileCounter =   253
(PID.TID 0000.0001) ADWRITE:  tapeFileCounter =   254
(PID.TID 0000.0001) ADWRITE:  tapeFileCounter =   255
(PID.TID 0000.0001) ADWRITE:  tapeFileCounter =   256
(PID.TID 0000.0001) ADWRITE:  tapeFileCounter =   257
(PID.TID 0000.0001) ADWRITE:  tapeFileCounter =   258
(PID.TID 0000.0001) ADWRITE:  tapeFileCounter =   259
(PID.TID 0000.0001) ADWRITE:  tapeFileCounter =   260
(PID.TID 0000.0001) ADWRITE:  tapeFileCounter =   261
(PID.TID 0000.0001) ADWRITE:  tapeFileCounter =   262
(PID.TID 0000.0001) ADWRITE:  tapeFileCounter =   263
(PID.TID 0000.0001) ADWRITE:  tapeFileCounter =   264
(PID.TID 0000.0001) ADWRITE:  tapeFileCounter =   265
(PID.TID 0000.0001) ADWRITE:  tapeFileCounter =   266
(PID.TID 0000.0001) ADWRITE:  tapeFileCounter =   267
(PID.TID 0000.0001) ADWRITE:  tapeFileCounter =   268
(PID.TID 0000.0001) ADWRITE:  tapeFileCounter =   269
(PID.TID 0000.0001) ADWRITE:  tapeFileCounter =   270
(PID.TID 0000.0001) ADWRITE:  tapeFileCounter =   271
(PID.TID 0000.0001) ADWRITE:  tapeFileCounter =   272
(PID.TID 0000.0001) ADWRITE:  tapeFileCounter =   273
(PID.TID 0000.0001) ADWRITE:  tapeFileCounter =   274
(PID.TID 0000.0001) ADWRITE:  tapeFileCounter =   275
(PID.TID 0000.0001) ADWRITE: tid,vid, irec, length, prec(x2)=    39    36     2    15456  8 64 fname=tapelev3_36_the_main_loop_vveld
(PID.TID 0000.0001) ADWRITE:  tapeFileCounter =   276
(PID.TID 0000.0001) ADWRITE:  tapeFileCounter =   277
(PID.TID 0000.0001) ADWRITE:  tapeFileCounter =   278
(PID.TID 0000.0001) ADWRITE:  tapeFileCounter =   279
(PID.TID 0000.0001) ADWRITE:  tapeFileCounter =   280
(PID.TID 0000.0001) ADWRITE:  tapeFileCounter =   281
(PID.TID 0000.0001) ADWRITE:  tapeFileCounter =   282
(PID.TID 0000.0001) ADWRITE:  tapeFileCounter =   283
(PID.TID 0000.0001) ADWRITE:  tapeFileCounter =   284
(PID.TID 0000.0001) ADWRITE:  tapeFileCounter =   285
(PID.TID 0000.0001) ADWRITE:  tapeFileCounter =   286
(PID.TID 0000.0001) ADWRITE:  tapeFileCounter =   287
(PID.TID 0000.0001) ADWRITE:  tapeFileCounter =   288
(PID.TID 0000.0001) ADWRITE:  tapeFileCounter =   289
(PID.TID 0000.0001) ADWRITE:  tapeFileCounter =   290
(PID.TID 0000.0001) ADWRITE:  tapeFileCounter =   291
(PID.TID 0000.0001) ADWRITE:  tapeFileCounter =   292
(PID.TID 0000.0001) ADWRITE:  tapeFileCounter =   293
(PID.TID 0000.0001) ADWRITE:  tapeFileCounter =   294
(PID.TID 0000.0001) ADWRITE:  tapeFileCounter =   295
(PID.TID 0000.0001) ADWRITE:  tapeFileCounter =   296
(PID.TID 0000.0001) ADWRITE:  tapeFileCounter =   297
(PID.TID 0000.0001) ADWRITE:  tapeFileCounter =   298
(PID.TID 0000.0001) ADWRITE: tid,vid, irec, length, prec(x2)=    39    37     2      672  8 64 fname=tapelev3_37_the_main_loop_etanm1
(PID.TID 0000.0001) ADWRITE:  tapeFileCounter =   299
(PID.TID 0000.0001) ADWRITE: tid,vid, irec, length, prec(x2)=    39    38     2    15456  8 64 fname=tapelev3_38_the_main_loop_unm1
(PID.TID 0000.0001) ADWRITE:  tapeFileCounter =   300
(PID.TID 0000.0001) ADWRITE:  tapeFileCounter =   301
(PID.TID 0000.0001) ADWRITE:  tapeFileCounter =   302
(PID.TID 0000.0001) ADWRITE:  tapeFileCounter =   303
(PID.TID 0000.0001) ADWRITE:  tapeFileCounter =   304
(PID.TID 0000.0001) ADWRITE:  tapeFileCounter =   305
(PID.TID 0000.0001) ADWRITE:  tapeFileCounter =   306
(PID.TID 0000.0001) ADWRITE:  tapeFileCounter =   307
(PID.TID 0000.0001) ADWRITE:  tapeFileCounter =   308
(PID.TID 0000.0001) ADWRITE:  tapeFileCounter =   309
(PID.TID 0000.0001) ADWRITE:  tapeFileCounter =   310
(PID.TID 0000.0001) ADWRITE:  tapeFileCounter =   311
(PID.TID 0000.0001) ADWRITE:  tapeFileCounter =   312
(PID.TID 0000.0001) ADWRITE:  tapeFileCounter =   313
(PID.TID 0000.0001) ADWRITE:  tapeFileCounter =   314
(PID.TID 0000.0001) ADWRITE:  tapeFileCounter =   315
(PID.TID 0000.0001) ADWRITE:  tapeFileCounter =   316
(PID.TID 0000.0001) ADWRITE:  tapeFileCounter =   317
(PID.TID 0000.0001) ADWRITE:  tapeFileCounter =   318
(PID.TID 0000.0001) ADWRITE:  tapeFileCounter =   319
(PID.TID 0000.0001) ADWRITE:  tapeFileCounter =   320
(PID.TID 0000.0001) ADWRITE:  tapeFileCounter =   321
(PID.TID 0000.0001) ADWRITE:  tapeFileCounter =   322
(PID.TID 0000.0001) ADWRITE: tid,vid, irec, length, prec(x2)=    39    39     2    15456  8 64 fname=tapelev3_39_the_main_loop_vnm1
(PID.TID 0000.0001) ADWRITE:  tapeFileCounter =   323
(PID.TID 0000.0001) ADWRITE:  tapeFileCounter =   324
(PID.TID 0000.0001) ADWRITE:  tapeFileCounter =   325
(PID.TID 0000.0001) ADWRITE:  tapeFileCounter =   326
(PID.TID 0000.0001) ADWRITE:  tapeFileCounter =   327
(PID.TID 0000.0001) ADWRITE:  tapeFileCounter =   328
(PID.TID 0000.0001) ADWRITE:  tapeFileCounter =   329
(PID.TID 0000.0001) ADWRITE:  tapeFileCounter =   330
(PID.TID 0000.0001) ADWRITE:  tapeFileCounter =   331
(PID.TID 0000.0001) ADWRITE:  tapeFileCounter =   332
(PID.TID 0000.0001) ADWRITE:  tapeFileCounter =   333
(PID.TID 0000.0001) ADWRITE:  tapeFileCounter =   334
(PID.TID 0000.0001) ADWRITE:  tapeFileCounter =   335
(PID.TID 0000.0001) ADWRITE:  tapeFileCounter =   336
(PID.TID 0000.0001) ADWRITE:  tapeFileCounter =   337
(PID.TID 0000.0001) ADWRITE:  tapeFileCounter =   338
(PID.TID 0000.0001) ADWRITE:  tapeFileCounter =   339
(PID.TID 0000.0001) ADWRITE:  tapeFileCounter =   340
(PID.TID 0000.0001) ADWRITE:  tapeFileCounter =   341
(PID.TID 0000.0001) ADWRITE:  tapeFileCounter =   342
(PID.TID 0000.0001) ADWRITE:  tapeFileCounter =   343
(PID.TID 0000.0001) ADWRITE:  tapeFileCounter =   344
(PID.TID 0000.0001) ADWRITE:  tapeFileCounter =   345
(PID.TID 0000.0001) ADWRITE: tid,vid, irec, length, prec(x2)=    39    40     2      672  8 64 fname=tapelev3_40_the_main_loop_areamask0
(PID.TID 0000.0001) ADWRITE:  tapeFileCounter =   346
(PID.TID 0000.0001) ADWRITE: tid,vid, irec, length, prec(x2)=    39    41     2      672  8 64 fname=tapelev3_41_the_main_loop_areamask1
(PID.TID 0000.0001) ADWRITE:  tapeFileCounter =   347
(PID.TID 0000.0001) ADWRITE: tid,vid, irec, length, prec(x2)=    39    42     2      672  8 64 fname=tapelev3_42_the_main_loop_hflux0
(PID.TID 0000.0001) ADWRITE:  tapeFileCounter =   348
(PID.TID 0000.0001) ADWRITE: tid,vid, irec, length, prec(x2)=    39    43     2      672  8 64 fname=tapelev3_43_the_main_loop_hflux1
(PID.TID 0000.0001) ADWRITE:  tapeFileCounter =   349
(PID.TID 0000.0001) ADWRITE: tid,vid, irec, length, prec(x2)=    39    44     2      672  8 64 fname=tapelev3_44_the_main_loop_sflux0
(PID.TID 0000.0001) ADWRITE:  tapeFileCounter =   350
(PID.TID 0000.0001) ADWRITE: tid,vid, irec, length, prec(x2)=    39    45     2      672  8 64 fname=tapelev3_45_the_main_loop_sflux1
(PID.TID 0000.0001) ADWRITE:  tapeFileCounter =   351
(PID.TID 0000.0001) ADWRITE: tid,vid, irec, length, prec(x2)=    39    46     2      672  8 64 fname=tapelev3_46_the_main_loop_ustress0
(PID.TID 0000.0001) ADWRITE:  tapeFileCounter =   352
(PID.TID 0000.0001) ADWRITE: tid,vid, irec, length, prec(x2)=    39    47     2      672  8 64 fname=tapelev3_47_the_main_loop_ustress1
(PID.TID 0000.0001) ADWRITE:  tapeFileCounter =   353
(PID.TID 0000.0001) ADWRITE: tid,vid, irec, length, prec(x2)=    39    48     2      672  8 64 fname=tapelev3_48_the_main_loop_vstress0
(PID.TID 0000.0001) ADWRITE:  tapeFileCounter =   354
(PID.TID 0000.0001) ADWRITE: tid,vid, irec, length, prec(x2)=    39    49     2      672  8 64 fname=tapelev3_49_the_main_loop_vstress1
(PID.TID 0000.0001) ADWRITE:  tapeFileCounter =   355
(PID.TID 0000.0001) ADWRITE: tid,vid, irec, length, prec(x2)=    39    50     2      672  8 64 fname=tapelev3_50_the_main_loop_wspeed0
(PID.TID 0000.0001) ADWRITE:  tapeFileCounter =   356
(PID.TID 0000.0001) ADWRITE: tid,vid, irec, length, prec(x2)=    39    51     2      672  8 64 fname=tapelev3_51_the_main_loop_wspeed1
(PID.TID 0000.0001) ADWRITE:  tapeFileCounter =   357
(PID.TID 0000.0001) ADWRITE: tid,vid, irec, length, prec(x2)=    39    54     2      672  8 64 fname=tapelev3_54_the_main_loop_runoff0
(PID.TID 0000.0001) ADWRITE:  tapeFileCounter =   358
(PID.TID 0000.0001) ADWRITE: tid,vid, irec, length, prec(x2)=    39    55     2      672  8 64 fname=tapelev3_55_the_main_loop_runoff1
(PID.TID 0000.0001) ADWRITE:  tapeFileCounter =   359
(PID.TID 0000.0001) ADWRITE: tid,vid, irec, length, prec(x2)=    39    56     2      672  8 64 fname=tapelev3_56_the_main_loop_apressure0
(PID.TID 0000.0001) ADWRITE:  tapeFileCounter =   360
(PID.TID 0000.0001) ADWRITE: tid,vid, irec, length, prec(x2)=    39    57     2      672  8 64 fname=tapelev3_57_the_main_loop_apressure1
(PID.TID 0000.0001) ADWRITE:  tapeFileCounter =   361
(PID.TID 0000.0001) ADWRITE: tid,vid, irec, length, prec(x2)=    39    58     2      672  8 64 fname=tapelev3_58_the_main_loop_siceload
(PID.TID 0000.0001) ADWRITE:  tapeFileCounter =   362
(PID.TID 0000.0001) ADWRITE: tid,vid, irec, length, prec(x2)=    39    59     2      672  8 64 fname=tapelev3_59_the_main_loop_climsss0
(PID.TID 0000.0001) ADWRITE:  tapeFileCounter =   363
(PID.TID 0000.0001) ADWRITE: tid,vid, irec, length, prec(x2)=    39    60     2      672  8 64 fname=tapelev3_60_the_main_loop_climsss1
(PID.TID 0000.0001) ADWRITE:  tapeFileCounter =   364
(PID.TID 0000.0001) ADWRITE: tid,vid, irec, length, prec(x2)=    39    61     2      672  8 64 fname=tapelev3_61_the_main_loop_climsst0
(PID.TID 0000.0001) ADWRITE:  tapeFileCounter =   365
(PID.TID 0000.0001) ADWRITE: tid,vid, irec, length, prec(x2)=    39    62     2      672  8 64 fname=tapelev3_62_the_main_loop_climsst1
(PID.TID 0000.0001) ADWRITE:  tapeFileCounter =   366
(PID.TID 0000.0001) ADWRITE: tid,vid, irec, length, prec(x2)=    39    63     2      672  8 64 fname=tapelev3_63_the_main_loop_saltflx0
(PID.TID 0000.0001) ADWRITE:  tapeFileCounter =   367
(PID.TID 0000.0001) ADWRITE: tid,vid, irec, length, prec(x2)=    39    64     2      672  8 64 fname=tapelev3_64_the_main_loop_saltflx1
(PID.TID 0000.0001) ADWRITE:  tapeFileCounter =   368
(PID.TID 0000.0001) ADWRITE: tid,vid, irec, length, prec(x2)=    39    65     2      672  8 64 fname=tapelev3_65_the_main_loop_aqh0
(PID.TID 0000.0001) ADWRITE:  tapeFileCounter =   369
(PID.TID 0000.0001) ADWRITE: tid,vid, irec, length, prec(x2)=    39    66     2      672  8 64 fname=tapelev3_66_the_main_loop_aqh1
(PID.TID 0000.0001) ADWRITE:  tapeFileCounter =   370
(PID.TID 0000.0001) ADWRITE: tid,vid, irec, length, prec(x2)=    39    67     2      672  8 64 fname=tapelev3_67_the_main_loop_atemp0
(PID.TID 0000.0001) ADWRITE:  tapeFileCounter =   371
(PID.TID 0000.0001) ADWRITE: tid,vid, irec, length, prec(x2)=    39    68     2      672  8 64 fname=tapelev3_68_the_main_loop_atemp1
(PID.TID 0000.0001) ADWRITE:  tapeFileCounter =   372
(PID.TID 0000.0001) ADWRITE: tid,vid, irec, length, prec(x2)=    39    69     2      672  8 64 fname=tapelev3_69_the_main_loop_precip0
(PID.TID 0000.0001) ADWRITE:  tapeFileCounter =   373
(PID.TID 0000.0001) ADWRITE: tid,vid, irec, length, prec(x2)=    39    70     2      672  8 64 fname=tapelev3_70_the_main_loop_precip1
(PID.TID 0000.0001) ADWRITE:  tapeFileCounter =   374
(PID.TID 0000.0001) ADWRITE: tid,vid, irec, length, prec(x2)=    39    73     2      672  8 64 fname=tapelev3_73_the_main_loop_snowprecip0
(PID.TID 0000.0001) ADWRITE:  tapeFileCounter =   375
(PID.TID 0000.0001) ADWRITE: tid,vid, irec, length, prec(x2)=    39    74     2      672  8 64 fname=tapelev3_74_the_main_loop_snowprecip1
(PID.TID 0000.0001) ADWRITE:  tapeFileCounter =   376
(PID.TID 0000.0001) ADWRITE: tid,vid, irec, length, prec(x2)=    39    75     2      672  8 64 fname=tapelev3_75_the_main_loop_swdown0
(PID.TID 0000.0001) ADWRITE:  tapeFileCounter =   377
(PID.TID 0000.0001) ADWRITE: tid,vid, irec, length, prec(x2)=    39    76     2      672  8 64 fname=tapelev3_76_the_main_loop_swdown1
(PID.TID 0000.0001) ADWRITE:  tapeFileCounter =   378
(PID.TID 0000.0001) ADWRITE: tid,vid, irec, length, prec(x2)=    39    77     2      672  8 64 fname=tapelev3_77_the_main_loop_lwdown0
(PID.TID 0000.0001) ADWRITE:  tapeFileCounter =   379
(PID.TID 0000.0001) ADWRITE: tid,vid, irec, length, prec(x2)=    39    78     2      672  8 64 fname=tapelev3_78_the_main_loop_lwdown1
(PID.TID 0000.0001) ADWRITE:  tapeFileCounter =   380
(PID.TID 0000.0001) ADWRITE: tid,vid, irec, length, prec(x2)=    39    79     2      672  8 64 fname=tapelev3_79_the_main_loop_uwind0
(PID.TID 0000.0001) ADWRITE:  tapeFileCounter =   381
(PID.TID 0000.0001) ADWRITE: tid,vid, irec, length, prec(x2)=    39    80     2      672  8 64 fname=tapelev3_80_the_main_loop_uwind1
(PID.TID 0000.0001) ADWRITE:  tapeFileCounter =   382
(PID.TID 0000.0001) ADWRITE: tid,vid, irec, length, prec(x2)=    39    81     2      672  8 64 fname=tapelev3_81_the_main_loop_vwind0
(PID.TID 0000.0001) ADWRITE:  tapeFileCounter =   383
(PID.TID 0000.0001) ADWRITE: tid,vid, irec, length, prec(x2)=    39    82     2      672  8 64 fname=tapelev3_82_the_main_loop_vwind1
(PID.TID 0000.0001) ADWRITE:  tapeFileCounter =   384
(PID.TID 0000.0001) ADWRITE: tid,vid, irec, length, prec(x2)=    39    83     2     6048  8 64 fname=tapelev3_83_the_main_loop_xx_gentim2d
(PID.TID 0000.0001) ADWRITE:  tapeFileCounter =   385
(PID.TID 0000.0001) ADWRITE:  tapeFileCounter =   386
(PID.TID 0000.0001) ADWRITE:  tapeFileCounter =   387
(PID.TID 0000.0001) ADWRITE:  tapeFileCounter =   388
(PID.TID 0000.0001) ADWRITE:  tapeFileCounter =   389
(PID.TID 0000.0001) ADWRITE:  tapeFileCounter =   390
(PID.TID 0000.0001) ADWRITE:  tapeFileCounter =   391
(PID.TID 0000.0001) ADWRITE:  tapeFileCounter =   392
(PID.TID 0000.0001) ADWRITE:  tapeFileCounter =   393
(PID.TID 0000.0001) ADWRITE: tid,vid, irec, length, prec(x2)=    39    84     2     6048  8 64 fname=tapelev3_84_the_main_loop_xx_gentim2d0
(PID.TID 0000.0001) ADWRITE:  tapeFileCounter =   394
(PID.TID 0000.0001) ADWRITE:  tapeFileCounter =   395
(PID.TID 0000.0001) ADWRITE:  tapeFileCounter =   396
(PID.TID 0000.0001) ADWRITE:  tapeFileCounter =   397
(PID.TID 0000.0001) ADWRITE:  tapeFileCounter =   398
(PID.TID 0000.0001) ADWRITE:  tapeFileCounter =   399
(PID.TID 0000.0001) ADWRITE:  tapeFileCounter =   400
(PID.TID 0000.0001) ADWRITE:  tapeFileCounter =   401
(PID.TID 0000.0001) ADWRITE:  tapeFileCounter =   402
(PID.TID 0000.0001) ADWRITE: tid,vid, irec, length, prec(x2)=    39    85     2     6048  8 64 fname=tapelev3_85_the_main_loop_xx_gentim2d1
(PID.TID 0000.0001) ADWRITE:  tapeFileCounter =   403
(PID.TID 0000.0001) ADWRITE:  tapeFileCounter =   404
(PID.TID 0000.0001) ADWRITE:  tapeFileCounter =   405
(PID.TID 0000.0001) ADWRITE:  tapeFileCounter =   406
(PID.TID 0000.0001) ADWRITE:  tapeFileCounter =   407
(PID.TID 0000.0001) ADWRITE:  tapeFileCounter =   408
(PID.TID 0000.0001) ADWRITE:  tapeFileCounter =   409
(PID.TID 0000.0001) ADWRITE:  tapeFileCounter =   410
(PID.TID 0000.0001) ADWRITE:  tapeFileCounter =   411
(PID.TID 0000.0001) ADWRITE: tid,vid, irec, length, prec(x2)=    39    87     2      672  8 64 fname=tapelev3_87_the_main_loop_phihydlow
(PID.TID 0000.0001) ADWRITE:  tapeFileCounter =   412
(PID.TID 0000.0001) ADWRITE: tid,vid, irec, length, prec(x2)=    39    88     2      672  8 64 fname=tapelev3_88_the_main_loop_area
(PID.TID 0000.0001) ADWRITE:  tapeFileCounter =   413
(PID.TID 0000.0001) ADWRITE: tid,vid, irec, length, prec(x2)=    39    89     2      672  8 64 fname=tapelev3_89_the_main_loop_heff
(PID.TID 0000.0001) ADWRITE:  tapeFileCounter =   414
(PID.TID 0000.0001) ADWRITE: tid,vid, irec, length, prec(x2)=    39    90     2      672  8 64 fname=tapelev3_90_the_main_loop_hsnow
(PID.TID 0000.0001) ADWRITE:  tapeFileCounter =   415
(PID.TID 0000.0001) ADWRITE: tid,vid, irec, length, prec(x2)=    39    92     2      672  8 64 fname=tapelev3_92_the_main_loop_uice
(PID.TID 0000.0001) ADWRITE:  tapeFileCounter =   416
(PID.TID 0000.0001) ADWRITE: tid,vid, irec, length, prec(x2)=    39    93     2      672  8 64 fname=tapelev3_93_the_main_loop_vice
(PID.TID 0000.0001) ADWRITE:  tapeFileCounter =   417
(PID.TID 0000.0001) ADWRITE: tid,vid, irec, length, prec(x2)=    39    96     2     4704  8 64 fname=tapelev3_96_the_main_loop_tices
(PID.TID 0000.0001) ADWRITE:  tapeFileCounter =   418
(PID.TID 0000.0001) ADWRITE:  tapeFileCounter =   419
(PID.TID 0000.0001) ADWRITE:  tapeFileCounter =   420
(PID.TID 0000.0001) ADWRITE:  tapeFileCounter =   421
(PID.TID 0000.0001) ADWRITE:  tapeFileCounter =   422
(PID.TID 0000.0001) ADWRITE:  tapeFileCounter =   423
(PID.TID 0000.0001) ADWRITE:  tapeFileCounter =   424
(PID.TID 0000.0001) ADWRITE: tid,vid, irec, length, prec(x2)=    39    97     2      672  8 64 fname=tapelev3_97_the_main_loop_dwatn
(PID.TID 0000.0001) ADWRITE:  tapeFileCounter =   425
(PID.TID 0000.0001) ADWRITE: tid,vid, irec, length, prec(x2)=    39    98     2      672  8 64 fname=tapelev3_98_the_main_loop_stressdivergencex
(PID.TID 0000.0001) ADWRITE:  tapeFileCounter =   426
(PID.TID 0000.0001) ADWRITE: tid,vid, irec, length, prec(x2)=    39    99     2      672  8 64 fname=tapelev3_99_the_main_loop_stressdivergencey
(PID.TID 0000.0001) ADWRITE:  tapeFileCounter =   427
(PID.TID 0000.0001) ADWRITE: tid,vid, irec, length, prec(x2)=    39   100     2      672  8 64 fname=tapelev3_100_the_main_loop_seaice_sigma1
(PID.TID 0000.0001) ADWRITE:  tapeFileCounter =   428
(PID.TID 0000.0001) ADWRITE: tid,vid, irec, length, prec(x2)=    39   101     2      672  8 64 fname=tapelev3_101_the_main_loop_seaice_sigma2
(PID.TID 0000.0001) ADWRITE:  tapeFileCounter =   429
(PID.TID 0000.0001) ADWRITE: tid,vid, irec, length, prec(x2)=    39   102     2      672  8 64 fname=tapelev3_102_the_main_loop_seaice_sigma12
(PID.TID 0000.0001) ADWRITE:  tapeFileCounter =   430
(PID.TID 0000.0001) ADWRITE: tid,vid, irec, length, prec(x2)=    39   103     2      672  8 64 fname=tapelev3_103_the_main_loop_hsalt
(PID.TID 0000.0001) ADWRITE:  tapeFileCounter =   431
(PID.TID 0000.0001) whio : write lev 3 rec   2
(PID.TID 0000.0001)  MDS_WRITE_FIELD: it,rec,kS,kL,kH=       1     5   1   1   1 file=m_sst_step.0000000001
(PID.TID 0000.0001)  MDS_READ_FIELD: opening global file: xx_atemp.effective.0000000001.data
(PID.TID 0000.0001) EXF_SET_FLD: processing field "climsss",  file: SSS_monthly.labsea1979
(PID.TID 0000.0001) EXF_SET_FLD:   myIter, count0, count1:         4      1      2
(PID.TID 0000.0001) EXF_SET_FLD:   first, changed, fac:   F   F    0.49453551912568305
(PID.TID 0000.0001) EXF_SET_FLD: processing field "uwind",  file: u10m.labsea1979
(PID.TID 0000.0001) EXF_SET_FLD:   myIter, count0, count1:         4      1      2
(PID.TID 0000.0001) EXF_SET_FLD:   first, changed, fac:   F   F    0.49453551912568305
(PID.TID 0000.0001) EXF_SET_FLD: processing field "vwind",  file: v10m.labsea1979
(PID.TID 0000.0001) EXF_SET_FLD:   myIter, count0, count1:         4      1      2
(PID.TID 0000.0001) EXF_SET_FLD:   first, changed, fac:   F   F    0.49453551912568305
(PID.TID 0000.0001) EXF_SET_FLD: processing field "atemp",  file: tair.labsea1979
(PID.TID 0000.0001) EXF_SET_FLD:   myIter, count0, count1:         4      1      2
(PID.TID 0000.0001) EXF_SET_FLD:   first, changed, fac:   F   F    0.49453551912568305
(PID.TID 0000.0001) EXF_SET_FLD: processing field "aqh",  file: qa.labsea1979
(PID.TID 0000.0001) EXF_SET_FLD:   myIter, count0, count1:         4      1      2
(PID.TID 0000.0001) EXF_SET_FLD:   first, changed, fac:   F   F    0.49453551912568305
(PID.TID 0000.0001) EXF_SET_FLD: processing field "precip",  file: prate.labsea1979
(PID.TID 0000.0001) EXF_SET_FLD:   myIter, count0, count1:         4      1      2
(PID.TID 0000.0001) EXF_SET_FLD:   first, changed, fac:   F   F    0.49453551912568305
(PID.TID 0000.0001) EXF_SET_FLD: processing field "swdown",  file: fsh.labsea1979
(PID.TID 0000.0001) EXF_SET_FLD:   myIter, count0, count1:         4      1      2
(PID.TID 0000.0001) EXF_SET_FLD:   first, changed, fac:   F   F    0.49453551912568305
(PID.TID 0000.0001) EXF_SET_FLD: processing field "lwdown",  file: flo.labsea1979
(PID.TID 0000.0001) EXF_SET_FLD:   myIter, count0, count1:         4      1      2
(PID.TID 0000.0001) EXF_SET_FLD:   first, changed, fac:   F   F    0.49453551912568305
(PID.TID 0000.0001) // =======================================================
(PID.TID 0000.0001) // Begin MONITOR EXF statistics
(PID.TID 0000.0001) // =======================================================
(PID.TID 0000.0001) %MON exf_tsnumber                 =                     4
(PID.TID 0000.0001) %MON exf_time_sec                 =   1.4400000000000E+04
(PID.TID 0000.0001) %MON exf_ustress_max              =   5.2054643524979E-02
(PID.TID 0000.0001) %MON exf_ustress_min              =  -9.3633182623144E-02
(PID.TID 0000.0001) %MON exf_ustress_mean             =   1.7457974649832E-02
(PID.TID 0000.0001) %MON exf_ustress_sd               =   2.3399629954755E-02
(PID.TID 0000.0001) %MON exf_ustress_del2             =   7.1304299722980E-04
(PID.TID 0000.0001) %MON exf_vstress_max              =   5.3739322574327E-02
(PID.TID 0000.0001) %MON exf_vstress_min              =  -5.8289444090197E-02
(PID.TID 0000.0001) %MON exf_vstress_mean             =  -5.4223906375498E-03
(PID.TID 0000.0001) %MON exf_vstress_sd               =   1.4311113350715E-02
(PID.TID 0000.0001) %MON exf_vstress_del2             =   5.1730797770439E-04
(PID.TID 0000.0001) %MON exf_hflux_max                =   6.2391837280522E+02
(PID.TID 0000.0001) %MON exf_hflux_min                =  -4.8143669413667E+01
(PID.TID 0000.0001) %MON exf_hflux_mean               =   1.4972256088460E+02
(PID.TID 0000.0001) %MON exf_hflux_sd                 =   1.7883808562904E+02
(PID.TID 0000.0001) %MON exf_hflux_del2               =   5.2926780441433E+00
(PID.TID 0000.0001) %MON exf_sflux_max                =   4.0199644210573E-08
(PID.TID 0000.0001) %MON exf_sflux_min                =  -8.8506390786636E-08
(PID.TID 0000.0001) %MON exf_sflux_mean               =  -2.5889209323158E-08
(PID.TID 0000.0001) %MON exf_sflux_sd                 =   3.0773788225396E-08
(PID.TID 0000.0001) %MON exf_sflux_del2               =   9.5815174147649E-10
(PID.TID 0000.0001) %MON exf_uwind_max                =   6.4664043520318E+00
(PID.TID 0000.0001) %MON exf_uwind_min                =  -6.8373452001582E+00
(PID.TID 0000.0001) %MON exf_uwind_mean               =   2.7702029429808E+00
(PID.TID 0000.0001) %MON exf_uwind_sd                 =   2.9911443548250E+00
(PID.TID 0000.0001) %MON exf_uwind_del2               =   8.0272161046655E-02
(PID.TID 0000.0001) %MON exf_vwind_max                =   3.9241889356915E+00
(PID.TID 0000.0001) %MON exf_vwind_min                =  -6.0160797489145E+00
(PID.TID 0000.0001) %MON exf_vwind_mean               =  -7.5842758888917E-01
(PID.TID 0000.0001) %MON exf_vwind_sd                 =   1.7297766046368E+00
(PID.TID 0000.0001) %MON exf_vwind_del2               =   4.8614427473218E-02
(PID.TID 0000.0001) %MON exf_wspeed_max               =   7.8834350500991E+00
(PID.TID 0000.0001) %MON exf_wspeed_min               =   4.5938084481311E-01
(PID.TID 0000.0001) %MON exf_wspeed_mean              =   4.1985322596174E+00
(PID.TID 0000.0001) %MON exf_wspeed_sd                =   1.6001985099325E+00
(PID.TID 0000.0001) %MON exf_wspeed_del2              =   1.3307908681795E-01
(PID.TID 0000.0001) %MON exf_atemp_max                =   2.8217596388853E+02
(PID.TID 0000.0001) %MON exf_atemp_min                =   2.3674390923339E+02
(PID.TID 0000.0001) %MON exf_atemp_mean               =   2.6422748149999E+02
(PID.TID 0000.0001) %MON exf_atemp_sd                 =   1.1989262748844E+01
(PID.TID 0000.0001) %MON exf_atemp_del2               =   1.6502054231363E-01
(PID.TID 0000.0001) %MON exf_aqh_max                  =   6.3203867802223E-03
(PID.TID 0000.0001) %MON exf_aqh_min                  =   1.6331633418045E-04
(PID.TID 0000.0001) %MON exf_aqh_mean                 =   2.4781214845702E-03
(PID.TID 0000.0001) %MON exf_aqh_sd                   =   1.4260952789855E-03
(PID.TID 0000.0001) %MON exf_aqh_del2                 =   1.7539350942077E-05
(PID.TID 0000.0001) %MON exf_lwflux_max               =   1.8505740221830E+02
(PID.TID 0000.0001) %MON exf_lwflux_min               =   3.4507217092665E+01
(PID.TID 0000.0001) %MON exf_lwflux_mean              =   8.1595702734555E+01
(PID.TID 0000.0001) %MON exf_lwflux_sd                =   4.1731118693201E+01
(PID.TID 0000.0001) %MON exf_lwflux_del2              =   8.9622294239984E-01
(PID.TID 0000.0001) %MON exf_evap_max                 =   4.6521201190944E-08
(PID.TID 0000.0001) %MON exf_evap_min                 =  -5.2326122181748E-09
(PID.TID 0000.0001) %MON exf_evap_mean                =   1.0500827843790E-08
(PID.TID 0000.0001) %MON exf_evap_sd                  =   1.1523363944583E-08
(PID.TID 0000.0001) %MON exf_evap_del2                =   4.5221377977476E-10
(PID.TID 0000.0001) %MON exf_precip_max               =   1.0499318877820E-07
(PID.TID 0000.0001) %MON exf_precip_min               =   2.7305928105298E-10
(PID.TID 0000.0001) %MON exf_precip_mean              =   3.6390037166947E-08
(PID.TID 0000.0001) %MON exf_precip_sd                =   2.0579953834835E-08
(PID.TID 0000.0001) %MON exf_precip_del2              =   8.1053660833620E-10
(PID.TID 0000.0001) %MON exf_swflux_max               =  -8.1206886983309E-02
(PID.TID 0000.0001) %MON exf_swflux_min               =  -6.4048595415960E+01
(PID.TID 0000.0001) %MON exf_swflux_mean              =  -2.6495351886448E+01
(PID.TID 0000.0001) %MON exf_swflux_sd                =   1.9641247100083E+01
(PID.TID 0000.0001) %MON exf_swflux_del2              =   8.9683727625812E-02
(PID.TID 0000.0001) %MON exf_swdown_max               =   7.1165106017733E+01
(PID.TID 0000.0001) %MON exf_swdown_min               =   9.0229874425898E-02
(PID.TID 0000.0001) %MON exf_swdown_mean              =   2.9439279873831E+01
(PID.TID 0000.0001) %MON exf_swdown_sd                =   2.1823607888981E+01
(PID.TID 0000.0001) %MON exf_swdown_del2              =   9.9648586250902E-02
(PID.TID 0000.0001) %MON exf_lwdown_max               =   3.0564441368228E+02
(PID.TID 0000.0001) %MON exf_lwdown_min               =   1.1593726459357E+02
(PID.TID 0000.0001) %MON exf_lwdown_mean              =   2.2588648764287E+02
(PID.TID 0000.0001) %MON exf_lwdown_sd                =   4.6293313753333E+01
(PID.TID 0000.0001) %MON exf_lwdown_del2              =   9.0901821399003E-01
(PID.TID 0000.0001) %MON exf_climsss_max              =   3.5041069874998E+01
(PID.TID 0000.0001) %MON exf_climsss_min              =   3.0669350483378E+01
(PID.TID 0000.0001) %MON exf_climsss_mean             =   3.3461404934907E+01
(PID.TID 0000.0001) %MON exf_climsss_sd               =   1.0316695849659E+00
(PID.TID 0000.0001) %MON exf_climsss_del2             =   2.6971958147510E-02
(PID.TID 0000.0001) // =======================================================
(PID.TID 0000.0001) // End MONITOR EXF statistics
(PID.TID 0000.0001) // =======================================================
DEBUG_STATS_RL: Uice pre  iter (SEAICE_LSR  1)  min= -6.64884179984298E-03
DEBUG_STATS_RL: Uice pre  iter (SEAICE_LSR  1)  max=  1.92542735136310E-01
DEBUG_STATS_RL: Uice pre  iter (SEAICE_LSR  1) mean=  6.47686246163816E-02
DEBUG_STATS_RL: Uice pre  iter (SEAICE_LSR  1) S.D.=  6.59732959909972E-02
DEBUG_STATS_RL: Vice pre  iter (SEAICE_LSR  1)  min= -1.58345599530559E-01
DEBUG_STATS_RL: Vice pre  iter (SEAICE_LSR  1)  max=  1.04255589228155E-01
DEBUG_STATS_RL: Vice pre  iter (SEAICE_LSR  1) mean= -2.61122078454132E-02
DEBUG_STATS_RL: Vice pre  iter (SEAICE_LSR  1) S.D.=  4.54292968520685E-02
DEBUG_STATS_RL: Uice pre  iter (SEAICE_LSR  2)  min= -7.39582706169583E-03
DEBUG_STATS_RL: Uice pre  iter (SEAICE_LSR  2)  max=  2.22032103672184E-01
DEBUG_STATS_RL: Uice pre  iter (SEAICE_LSR  2) mean=  6.99701895633639E-02
DEBUG_STATS_RL: Uice pre  iter (SEAICE_LSR  2) S.D.=  7.26089122440114E-02
DEBUG_STATS_RL: Vice pre  iter (SEAICE_LSR  2)  min= -1.71770480186521E-01
DEBUG_STATS_RL: Vice pre  iter (SEAICE_LSR  2)  max=  1.08496327276559E-01
DEBUG_STATS_RL: Vice pre  iter (SEAICE_LSR  2) mean= -3.10609864818265E-02
DEBUG_STATS_RL: Vice pre  iter (SEAICE_LSR  2) S.D.=  4.99863315300799E-02
DEBUG_STATS_RL:                EtaN (DYNAMICS)  min= -1.33494653835899E-01
DEBUG_STATS_RL:                EtaN (DYNAMICS)  max=  3.19990607833373E-01
DEBUG_STATS_RL:                EtaN (DYNAMICS) mean= -2.52532747894183E-03
DEBUG_STATS_RL:                EtaN (DYNAMICS) S.D.=  7.76931608941039E-02
DEBUG_STATS_RL:                Uvel (DYNAMICS)  min= -4.51228100181699E-02
DEBUG_STATS_RL:                Uvel (DYNAMICS)  max=  8.23946614698039E-02
DEBUG_STATS_RL:                Uvel (DYNAMICS) mean=  4.46006533351786E-03
DEBUG_STATS_RL:                Uvel (DYNAMICS) S.D.=  1.25503402183565E-02
DEBUG_STATS_RL:                Vvel (DYNAMICS)  min= -5.43131072024495E-02
DEBUG_STATS_RL:                Vvel (DYNAMICS)  max=  6.64710959483302E-02
DEBUG_STATS_RL:                Vvel (DYNAMICS) mean=  9.07394962405455E-04
DEBUG_STATS_RL:                Vvel (DYNAMICS) S.D.=  1.42265213439462E-02
DEBUG_STATS_RL:                Wvel (DYNAMICS)  min= -1.50094143875166E-04
DEBUG_STATS_RL:                Wvel (DYNAMICS)  max=  2.67848367720703E-04
DEBUG_STATS_RL:                Wvel (DYNAMICS) mean= -2.83768310637974E-07
DEBUG_STATS_RL:                Wvel (DYNAMICS) S.D.=  2.30755404976203E-05
DEBUG_STATS_RL:               Theta (DYNAMICS)  min= -1.95323356757650E+00
DEBUG_STATS_RL:               Theta (DYNAMICS)  max=  1.32611729219858E+01
DEBUG_STATS_RL:               Theta (DYNAMICS) mean=  2.41624287435038E+00
DEBUG_STATS_RL:               Theta (DYNAMICS) S.D.=  2.57467251754838E+00
DEBUG_STATS_RL:                Salt (DYNAMICS)  min=  2.76192995644599E+01
DEBUG_STATS_RL:                Salt (DYNAMICS)  max=  3.54511687806856E+01
DEBUG_STATS_RL:                Salt (DYNAMICS) mean=  3.39368869963862E+01
DEBUG_STATS_RL:                Salt (DYNAMICS) S.D.=  1.15395653842225E+00
DEBUG_STATS_RL:                  Gu (DYNAMICS)  min= -3.06969616935982E-02
DEBUG_STATS_RL:                  Gu (DYNAMICS)  max=  9.72073114926341E-02
DEBUG_STATS_RL:                  Gu (DYNAMICS) mean=  3.10151082317653E-03
DEBUG_STATS_RL:                  Gu (DYNAMICS) S.D.=  1.41052551008710E-02
DEBUG_STATS_RL:                  Gv (DYNAMICS)  min= -9.53132079806593E-02
DEBUG_STATS_RL:                  Gv (DYNAMICS)  max=  5.33682068181781E-02
DEBUG_STATS_RL:                  Gv (DYNAMICS) mean= -5.06243016752949E-03
DEBUG_STATS_RL:                  Gv (DYNAMICS) S.D.=  1.53588463679172E-02
DEBUG_STATS_RL:               GuNm1 (DYNAMICS)  min= -2.35357489189911E-07
DEBUG_STATS_RL:               GuNm1 (DYNAMICS)  max=  1.71456102315441E-07
DEBUG_STATS_RL:               GuNm1 (DYNAMICS) mean= -2.01481983921378E-09
DEBUG_STATS_RL:               GuNm1 (DYNAMICS) S.D.=  4.45062316312349E-08
DEBUG_STATS_RL:               GvNm1 (DYNAMICS)  min= -1.49109605789104E-07
DEBUG_STATS_RL:               GvNm1 (DYNAMICS)  max=  1.05797935490742E-07
DEBUG_STATS_RL:               GvNm1 (DYNAMICS) mean= -1.04937902583504E-09
DEBUG_STATS_RL:               GvNm1 (DYNAMICS) S.D.=  3.09410614929419E-08
DEBUG_STATS_RL:               GtNm1 (DYNAMICS)  min=  0.00000000000000E+00
DEBUG_STATS_RL:               GtNm1 (DYNAMICS)  max=  0.00000000000000E+00
DEBUG_STATS_RL:               GtNm1 (DYNAMICS) mean=  0.00000000000000E+00
DEBUG_STATS_RL:               GtNm1 (DYNAMICS) S.D.=  0.00000000000000E+00
DEBUG_STATS_RL:               GsNm1 (DYNAMICS)  min=  0.00000000000000E+00
DEBUG_STATS_RL:               GsNm1 (DYNAMICS)  max=  0.00000000000000E+00
DEBUG_STATS_RL:               GsNm1 (DYNAMICS) mean=  0.00000000000000E+00
DEBUG_STATS_RL:               GsNm1 (DYNAMICS) S.D.=  0.00000000000000E+00
DEBUG_STATS_RL:    cg2d_b (SOLVE_FOR_PRESSURE)  min= -7.47095948274198E+03
DEBUG_STATS_RL:    cg2d_b (SOLVE_FOR_PRESSURE)  max=  2.18029189648793E+03
DEBUG_STATS_RL:    cg2d_b (SOLVE_FOR_PRESSURE) mean=  3.74787608355594E-13
DEBUG_STATS_RL:    cg2d_b (SOLVE_FOR_PRESSURE) S.D.=  9.11464014140524E+02
 cg2d: Sum(rhs),rhsMax =   5.26662047306559E-15  1.20244643428826E+00
DEBUG_STATS_RL:    cg2d_x (SOLVE_FOR_PRESSURE)  min= -1.27317826454390E+00
DEBUG_STATS_RL:    cg2d_x (SOLVE_FOR_PRESSURE)  max=  3.19622316797689E+00
DEBUG_STATS_RL:    cg2d_x (SOLVE_FOR_PRESSURE) mean= -2.95294169356676E-02
DEBUG_STATS_RL:    cg2d_x (SOLVE_FOR_PRESSURE) S.D.=  7.40273720372922E-01
(PID.TID 0000.0001)      cg2d_init_res =   9.73195228311426E-02
(PID.TID 0000.0001)      cg2d_iters(min,last) =      -1      44
(PID.TID 0000.0001)      cg2d_last_res =   4.99843394264862E-14
DEBUG_STATS_RL:          Uvel (THERMODYNAMICS)  min= -3.64296443204224E-02
DEBUG_STATS_RL:          Uvel (THERMODYNAMICS)  max=  8.91662112566489E-02
DEBUG_STATS_RL:          Uvel (THERMODYNAMICS) mean=  5.18186102505262E-03
DEBUG_STATS_RL:          Uvel (THERMODYNAMICS) S.D.=  1.36791834404111E-02
DEBUG_STATS_RL:          Vvel (THERMODYNAMICS)  min= -8.48427067731397E-02
DEBUG_STATS_RL:          Vvel (THERMODYNAMICS)  max=  7.15709637633448E-02
DEBUG_STATS_RL:          Vvel (THERMODYNAMICS) mean= -6.25663991250223E-04
DEBUG_STATS_RL:          Vvel (THERMODYNAMICS) S.D.=  1.65568599029307E-02
DEBUG_STATS_RL:          Wvel (THERMODYNAMICS)  min= -2.02998023749463E-04
DEBUG_STATS_RL:          Wvel (THERMODYNAMICS)  max=  3.07634744219620E-04
DEBUG_STATS_RL:          Wvel (THERMODYNAMICS) mean= -2.14485636605179E-07
DEBUG_STATS_RL:          Wvel (THERMODYNAMICS) S.D.=  2.56514188295233E-05
DEBUG_STATS_RL:         Theta (THERMODYNAMICS)  min= -1.95891909892377E+00
DEBUG_STATS_RL:         Theta (THERMODYNAMICS)  max=  1.32575107273067E+01
DEBUG_STATS_RL:         Theta (THERMODYNAMICS) mean=  2.41560973729717E+00
DEBUG_STATS_RL:         Theta (THERMODYNAMICS) S.D.=  2.57506629522921E+00
DEBUG_STATS_RL:          Salt (THERMODYNAMICS)  min=  2.76241835718781E+01
DEBUG_STATS_RL:          Salt (THERMODYNAMICS)  max=  3.54512322319690E+01
DEBUG_STATS_RL:          Salt (THERMODYNAMICS) mean=  3.39367610972827E+01
DEBUG_STATS_RL:          Salt (THERMODYNAMICS) S.D.=  1.15400523729775E+00
DEBUG_STATS_RL:         GtNm1 (THERMODYNAMICS)  min=  0.00000000000000E+00
DEBUG_STATS_RL:         GtNm1 (THERMODYNAMICS)  max=  0.00000000000000E+00
DEBUG_STATS_RL:         GtNm1 (THERMODYNAMICS) mean=  0.00000000000000E+00
DEBUG_STATS_RL:         GtNm1 (THERMODYNAMICS) S.D.=  0.00000000000000E+00
DEBUG_STATS_RL:         GsNm1 (THERMODYNAMICS)  min=  0.00000000000000E+00
DEBUG_STATS_RL:         GsNm1 (THERMODYNAMICS)  max=  0.00000000000000E+00
DEBUG_STATS_RL:         GsNm1 (THERMODYNAMICS) mean=  0.00000000000000E+00
DEBUG_STATS_RL:         GsNm1 (THERMODYNAMICS) S.D.=  0.00000000000000E+00
(PID.TID 0000.0001) // =======================================================
(PID.TID 0000.0001) // Begin MONITOR dynamic field statistics
(PID.TID 0000.0001) // =======================================================
(PID.TID 0000.0001) %MON time_tsnumber                =                     5
(PID.TID 0000.0001) %MON time_secondsf                =   1.8000000000000E+04
(PID.TID 0000.0001) %MON dynstat_eta_max              =   3.2562687639848E-01
(PID.TID 0000.0001) %MON dynstat_eta_min              =  -1.2970967282121E-01
(PID.TID 0000.0001) %MON dynstat_eta_mean             =  -2.4549056344512E-16
(PID.TID 0000.0001) %MON dynstat_eta_sd               =   8.2778374314419E-02
(PID.TID 0000.0001) %MON dynstat_eta_del2             =   2.1398475198832E-03
(PID.TID 0000.0001) %MON dynstat_uvel_max             =   8.9166211256649E-02
(PID.TID 0000.0001) %MON dynstat_uvel_min             =  -3.6429644320422E-02
(PID.TID 0000.0001) %MON dynstat_uvel_mean            =   4.9396021816333E-04
(PID.TID 0000.0001) %MON dynstat_uvel_sd              =   7.5636252581474E-03
(PID.TID 0000.0001) %MON dynstat_uvel_del2            =   3.1726666733545E-04
(PID.TID 0000.0001) %MON dynstat_vvel_max             =   7.1570963763345E-02
(PID.TID 0000.0001) %MON dynstat_vvel_min             =  -8.4842706773140E-02
(PID.TID 0000.0001) %MON dynstat_vvel_mean            =  -4.2540517750775E-04
(PID.TID 0000.0001) %MON dynstat_vvel_sd              =   9.6711454031245E-03
(PID.TID 0000.0001) %MON dynstat_vvel_del2            =   2.0266108619499E-04
(PID.TID 0000.0001) %MON dynstat_wvel_max             =   3.0763474421962E-04
(PID.TID 0000.0001) %MON dynstat_wvel_min             =  -2.0299802374946E-04
(PID.TID 0000.0001) %MON dynstat_wvel_mean            =   1.6373691498263E-21
(PID.TID 0000.0001) %MON dynstat_wvel_sd              =   5.0019828383162E-05
(PID.TID 0000.0001) %MON dynstat_wvel_del2            =   8.3057358601640E-07
(PID.TID 0000.0001) %MON dynstat_theta_max            =   1.3257510727307E+01
(PID.TID 0000.0001) %MON dynstat_theta_min            =  -1.9589190989238E+00
(PID.TID 0000.0001) %MON dynstat_theta_mean           =   3.0732789173533E+00
(PID.TID 0000.0001) %MON dynstat_theta_sd             =   1.4281446321209E+00
(PID.TID 0000.0001) %MON dynstat_theta_del2           =   9.8440313093624E-03
(PID.TID 0000.0001) %MON dynstat_salt_max             =   3.5451232231969E+01
(PID.TID 0000.0001) %MON dynstat_salt_min             =   2.7624183571878E+01
(PID.TID 0000.0001) %MON dynstat_salt_mean            =   3.4746191523518E+01
(PID.TID 0000.0001) %MON dynstat_salt_sd              =   5.1271346994605E-01
(PID.TID 0000.0001) %MON dynstat_salt_del2            =   3.6533173056322E-03
(PID.TID 0000.0001) %MON dynstat_sst_max              =   5.4886331177865E+00
(PID.TID 0000.0001) %MON dynstat_sst_min              =  -1.9589190989238E+00
(PID.TID 0000.0001) %MON dynstat_sst_mean             =  -1.2414779032933E+00
(PID.TID 0000.0001) %MON dynstat_sst_sd               =   1.4386721477665E+00
(PID.TID 0000.0001) %MON dynstat_sst_del2             =   3.0539575799422E-02
(PID.TID 0000.0001) %MON dynstat_sss_max              =   3.2696538245307E+01
(PID.TID 0000.0001) %MON dynstat_sss_min              =   2.7624183571878E+01
(PID.TID 0000.0001) %MON dynstat_sss_mean             =   3.1222576053581E+01
(PID.TID 0000.0001) %MON dynstat_sss_sd               =   1.1636128039950E+00
(PID.TID 0000.0001) %MON dynstat_sss_del2             =   2.2352518507005E-02
(PID.TID 0000.0001) %MON forcing_qnet_max             =   2.5650565501186E+02
(PID.TID 0000.0001) %MON forcing_qnet_min             =  -4.8143669413667E+01
(PID.TID 0000.0001) %MON forcing_qnet_mean            =   7.6402253272894E+01
(PID.TID 0000.0001) %MON forcing_qnet_sd              =   6.4243787491004E+01
(PID.TID 0000.0001) %MON forcing_qnet_del2            =   5.3970304286103E+00
(PID.TID 0000.0001) %MON forcing_qsw_max              =   0.0000000000000E+00
(PID.TID 0000.0001) %MON forcing_qsw_min              =  -6.4048595415960E+01
(PID.TID 0000.0001) %MON forcing_qsw_mean             =  -1.6196499202539E+01
(PID.TID 0000.0001) %MON forcing_qsw_sd               =   2.3048972387722E+01
(PID.TID 0000.0001) %MON forcing_qsw_del2             =   1.2451137525633E+00
(PID.TID 0000.0001) %MON forcing_empmr_max            =   1.9050964988628E-05
(PID.TID 0000.0001) %MON forcing_empmr_min            =  -7.3761672929869E-04
(PID.TID 0000.0001) %MON forcing_empmr_mean           =  -1.8860603836728E-04
(PID.TID 0000.0001) %MON forcing_empmr_sd             =   1.4388689537515E-04
(PID.TID 0000.0001) %MON forcing_empmr_del2           =   1.4411773055490E-05
(PID.TID 0000.0001) %MON forcing_fu_max               =   7.9289336158392E-02
(PID.TID 0000.0001) %MON forcing_fu_min               =  -5.1613778676994E-03
(PID.TID 0000.0001) %MON forcing_fu_mean              =   2.4406628447339E-02
(PID.TID 0000.0001) %MON forcing_fu_sd                =   2.2868540065204E-02
(PID.TID 0000.0001) %MON forcing_fu_del2              =   1.0972487855701E-03
(PID.TID 0000.0001) %MON forcing_fv_max               =   1.0553524950902E-02
(PID.TID 0000.0001) %MON forcing_fv_min               =  -6.1403041239254E-02
(PID.TID 0000.0001) %MON forcing_fv_mean              =  -8.7462534123481E-03
(PID.TID 0000.0001) %MON forcing_fv_sd                =   1.5300825627886E-02
(PID.TID 0000.0001) %MON forcing_fv_del2              =   6.1373167594790E-04
(PID.TID 0000.0001) %MON trAdv_CFL_u_max              =   2.3453255231497E-03
(PID.TID 0000.0001) %MON trAdv_CFL_v_max              =   1.4075099740772E-03
(PID.TID 0000.0001) %MON trAdv_CFL_w_max              =   5.4052481142956E-03
(PID.TID 0000.0001) %MON advcfl_uvel_max              =   2.3452064537950E-03
(PID.TID 0000.0001) %MON advcfl_vvel_max              =   1.3734158275028E-03
(PID.TID 0000.0001) %MON advcfl_wvel_max              =   6.0221678625970E-03
(PID.TID 0000.0001) %MON advcfl_W_hf_max              =   7.2266014351164E-03
(PID.TID 0000.0001) %MON pe_b_mean                    =   2.2589500480993E-05
(PID.TID 0000.0001) %MON ke_max                       =   6.7995128110085E-03
(PID.TID 0000.0001) %MON ke_mean                      =   5.9171907585115E-05
(PID.TID 0000.0001) %MON ke_vol                       =   5.3036189546438E+15
(PID.TID 0000.0001) %MON vort_r_min                   =  -7.9004169000404E-07
(PID.TID 0000.0001) %MON vort_r_max                   =   3.9709991059407E-07
(PID.TID 0000.0001) %MON vort_a_mean                  =   1.2067277475406E-04
(PID.TID 0000.0001) %MON vort_a_sd                    =   8.8120563650502E-06
(PID.TID 0000.0001) %MON vort_p_mean                  =   1.7734842982817E-04
(PID.TID 0000.0001) %MON vort_p_sd                    =   1.1690034772091E-04
(PID.TID 0000.0001) %MON surfExpan_theta_mean         =   1.3414598640967E-06
(PID.TID 0000.0001) %MON surfExpan_salt_mean          =   6.2293998806550E-07
(PID.TID 0000.0001) // =======================================================
(PID.TID 0000.0001) // End MONITOR dynamic field statistics
(PID.TID 0000.0001) // =======================================================
(PID.TID 0000.0001) // =======================================================
(PID.TID 0000.0001) // Begin MONITOR SEAICE statistics
(PID.TID 0000.0001) // =======================================================
(PID.TID 0000.0001) %MON seaice_tsnumber              =                     5
(PID.TID 0000.0001) %MON seaice_time_sec              =   1.8000000000000E+04
(PID.TID 0000.0001) %MON seaice_uice_max              =   2.1944568464711E-01
(PID.TID 0000.0001) %MON seaice_uice_min              =  -9.0212193342816E-03
(PID.TID 0000.0001) %MON seaice_uice_mean             =   8.7102061289104E-02
(PID.TID 0000.0001) %MON seaice_uice_sd               =   7.2808237851783E-02
(PID.TID 0000.0001) %MON seaice_uice_del2             =   2.2586733237369E-03
(PID.TID 0000.0001) %MON seaice_vice_max              =   1.0517480257601E-01
(PID.TID 0000.0001) %MON seaice_vice_min              =  -1.7311205781956E-01
(PID.TID 0000.0001) %MON seaice_vice_mean             =  -3.3846697799275E-02
(PID.TID 0000.0001) %MON seaice_vice_sd               =   5.3999862387633E-02
(PID.TID 0000.0001) %MON seaice_vice_del2             =   1.5535399173312E-03
(PID.TID 0000.0001) %MON seaice_area_max              =   1.0000000000000E+00
(PID.TID 0000.0001) %MON seaice_area_min              =   0.0000000000000E+00
(PID.TID 0000.0001) %MON seaice_area_mean             =   6.3976085575077E-01
(PID.TID 0000.0001) %MON seaice_area_sd               =   4.7920971984378E-01
(PID.TID 0000.0001) %MON seaice_area_del2             =   3.0550046515362E-02
(PID.TID 0000.0001) %MON seaice_heff_max              =   5.7174019685513E-01
(PID.TID 0000.0001) %MON seaice_heff_min              =   0.0000000000000E+00
(PID.TID 0000.0001) %MON seaice_heff_mean             =   1.7804757444599E-01
(PID.TID 0000.0001) %MON seaice_heff_sd               =   1.8370259008052E-01
(PID.TID 0000.0001) %MON seaice_heff_del2             =   3.9819914247280E-03
(PID.TID 0000.0001) %MON seaice_hsnow_max             =   2.0012146334641E-01
(PID.TID 0000.0001) %MON seaice_hsnow_min             =   0.0000000000000E+00
(PID.TID 0000.0001) %MON seaice_hsnow_mean            =   6.3116665432874E-02
(PID.TID 0000.0001) %MON seaice_hsnow_sd              =   6.5111183825920E-02
(PID.TID 0000.0001) %MON seaice_hsnow_del2            =   1.4114581218398E-03
(PID.TID 0000.0001) %MON seaice_hsalt_max             =   5.0482127877026E+03
(PID.TID 0000.0001) %MON seaice_hsalt_min             =   0.0000000000000E+00
(PID.TID 0000.0001) %MON seaice_hsalt_mean            =   1.4645590237497E+03
(PID.TID 0000.0001) %MON seaice_hsalt_sd              =   1.5912939759030E+03
(PID.TID 0000.0001) %MON seaice_hsalt_del2            =   3.6144595076223E+01
(PID.TID 0000.0001) // =======================================================
(PID.TID 0000.0001) // End MONITOR SEAICE statistics
(PID.TID 0000.0001) // =======================================================
 Computing Diagnostic #     23  ETAN         Counter:       1   Parms: SM      M1      
(PID.TID 0000.0001)  MDS_WRITE_FIELD: it,rec,kS,kL,kH=       5    -1  46   1   1 file=diags/state_2d_set1.0000000005
 Computing Diagnostic #    294  SIarea       Counter:       1   Parms: SM      M1      
(PID.TID 0000.0001)  MDS_WRITE_FIELD: it,rec,kS,kL,kH=       5    -2  46   1   1 file=diags/state_2d_set1.0000000005
 Computing Diagnostic #    297  SIheff       Counter:       1   Parms: SM      M1      
(PID.TID 0000.0001)  MDS_WRITE_FIELD: it,rec,kS,kL,kH=       5    -3  46   1   1 file=diags/state_2d_set1.0000000005
 Computing Diagnostic #    299  SIhsnow      Counter:       1   Parms: SM      M1      
(PID.TID 0000.0001)  MDS_WRITE_FIELD: it,rec,kS,kL,kH=       5    -4  46   1   1 file=diags/state_2d_set1.0000000005
 Computing Diagnostic #     25  DETADT2      Counter:       1   Parms: SM      M1      
(PID.TID 0000.0001)  MDS_WRITE_FIELD: it,rec,kS,kL,kH=       5    -5  46   1   1 file=diags/state_2d_set1.0000000005
 Computing Diagnostic #     73  PHIBOT       Counter:       1   Parms: SM      M1      
(PID.TID 0000.0001)  MDS_WRITE_FIELD: it,rec,kS,kL,kH=       5    -6  46   1   1 file=diags/state_2d_set1.0000000005
 Computing Diagnostic #     82  sIceLoad     Counter:       1   Parms: SM      U1      
(PID.TID 0000.0001)  MDS_WRITE_FIELD: it,rec,kS,kL,kH=       5    -7  46   1   1 file=diags/state_2d_set1.0000000005
 Computing Diagnostic #     76  MXLDEPTH     Counter:       1   Parms: SM      M1      
(PID.TID 0000.0001)  MDS_WRITE_FIELD: it,rec,kS,kL,kH=       5    -8  46   1   1 file=diags/state_2d_set1.0000000005
 Computing Diagnostic #    325  SIatmFW      Counter:       1   Parms: SM      U1      
(PID.TID 0000.0001)  MDS_WRITE_FIELD: it,rec,kS,kL,kH=       5    -9  46   1   1 file=diags/state_2d_set1.0000000005
 Computing Diagnostic #     85  oceQnet      Counter:       1   Parms: SM      U1      
(PID.TID 0000.0001)  MDS_WRITE_FIELD: it,rec,kS,kL,kH=       5   -10  46   1   1 file=diags/state_2d_set1.0000000005
 Computing Diagnostic #     83  oceFWflx     Counter:       1   Parms: SM      U1      
(PID.TID 0000.0001)  MDS_WRITE_FIELD: it,rec,kS,kL,kH=       5   -11  46   1   1 file=diags/state_2d_set1.0000000005
 Computing Diagnostic #     79  oceTAUX      Counter:       1   Parms: UU      U1      
           Vector  Mate for  oceTAUX      Diagnostic #     80  oceTAUY  exists 
(PID.TID 0000.0001)  MDS_WRITE_FIELD: it,rec,kS,kL,kH=       5   -12  46   1   1 file=diags/state_2d_set1.0000000005
 Computing Diagnostic #     80  oceTAUY      Counter:       1   Parms: VV      U1      
           Vector  Mate for  oceTAUY      Diagnostic #     79  oceTAUX  exists 
(PID.TID 0000.0001)  MDS_WRITE_FIELD: it,rec,kS,kL,kH=       5   -13  46   1   1 file=diags/state_2d_set1.0000000005
 Computing Diagnostic #    311  SIuice       Counter:       1   Parms: UU      M1      
           Vector  Mate for  SIuice       Diagnostic #    312  SIvice   exists 
(PID.TID 0000.0001)  MDS_WRITE_FIELD: it,rec,kS,kL,kH=       5   -14  46   1   1 file=diags/state_2d_set1.0000000005
 Computing Diagnostic #    312  SIvice       Counter:       1   Parms: VV      M1      
           Vector  Mate for  SIvice       Diagnostic #    311  SIuice   exists 
(PID.TID 0000.0001)  MDS_WRITE_FIELD: it,rec,kS,kL,kH=       5   -15  46   1   1 file=diags/state_2d_set1.0000000005
 Computing Diagnostic #     24  ETANSQ       Counter:       1   Parms: SM P    M1      
(PID.TID 0000.0001)  MDS_WRITE_FIELD: it,rec,kS,kL,kH=       5   -16  46   1   1 file=diags/state_2d_set1.0000000005
 Computing Diagnostic #     26  THETA        Counter:       1   Parms: SMR     MR      
(PID.TID 0000.0001)  MDS_WRITE_FIELD: it,rec,kS,kL,kH=       5    -1  46   1  23 file=diags/state_3d_set1.0000000005
 Computing Diagnostic #     27  SALT         Counter:       1   Parms: SMR     MR      
(PID.TID 0000.0001)  MDS_WRITE_FIELD: it,rec,kS,kL,kH=       5    -2  46   1  23 file=diags/state_3d_set1.0000000005
 Computing Diagnostic #     45  UVELMASS     Counter:       1   Parms: UUr     MR      
           Vector  Mate for  UVELMASS     Diagnostic #     46  VVELMASS exists 
(PID.TID 0000.0001)  MDS_WRITE_FIELD: it,rec,kS,kL,kH=       5    -1  46   1  23 file=diags/trsp_3d_set1.0000000005
 Computing Diagnostic #     46  VVELMASS     Counter:       1   Parms: VVr     MR      
           Vector  Mate for  VVELMASS     Diagnostic #     45  UVELMASS exists 
(PID.TID 0000.0001)  MDS_WRITE_FIELD: it,rec,kS,kL,kH=       5    -2  46   1  23 file=diags/trsp_3d_set1.0000000005
 Computing Diagnostic #    224  EXFpreci     Counter:       1   Parms: SM      U1      
(PID.TID 0000.0001)  MDS_WRITE_FIELD: it,rec,kS,kL,kH=       5    -1  46   1   1 file=diags/exf_zflux_set1.0000000005
 Computing Diagnostic #    223  EXFevap      Counter:       1   Parms: SM      U1      
(PID.TID 0000.0001)  MDS_WRITE_FIELD: it,rec,kS,kL,kH=       5    -2  46   1   1 file=diags/exf_zflux_set1.0000000005
 Computing Diagnostic #    228  EXFroff      Counter:       1   Parms: SM      U1      
(PID.TID 0000.0001)  MDS_WRITE_FIELD: it,rec,kS,kL,kH=       5    -3  46   1   1 file=diags/exf_zflux_set1.0000000005
 Computing Diagnostic #    226  EXFempmr     Counter:       1   Parms: SM      U1      
(PID.TID 0000.0001)  MDS_WRITE_FIELD: it,rec,kS,kL,kH=       5    -4  46   1   1 file=diags/exf_zflux_set1.0000000005
 Computing Diagnostic #    212  EXFswdn      Counter:       1   Parms: SM      U1      
(PID.TID 0000.0001)  MDS_WRITE_FIELD: it,rec,kS,kL,kH=       5    -5  46   1   1 file=diags/exf_zflux_set1.0000000005
 Computing Diagnostic #    211  EXFlwdn      Counter:       1   Parms: SM      U1      
(PID.TID 0000.0001)  MDS_WRITE_FIELD: it,rec,kS,kL,kH=       5    -6  46   1   1 file=diags/exf_zflux_set1.0000000005
 Computing Diagnostic #    210  EXFswnet     Counter:       1   Parms: SM      U1      
(PID.TID 0000.0001)  MDS_WRITE_FIELD: it,rec,kS,kL,kH=       5    -7  46   1   1 file=diags/exf_zflux_set1.0000000005
 Computing Diagnostic #    209  EXFlwnet     Counter:       1   Parms: SM      U1      
(PID.TID 0000.0001)  MDS_WRITE_FIELD: it,rec,kS,kL,kH=       5    -8  46   1   1 file=diags/exf_zflux_set1.0000000005
 Computing Diagnostic #    213  EXFqnet      Counter:       1   Parms: SM      U1      
(PID.TID 0000.0001)  MDS_WRITE_FIELD: it,rec,kS,kL,kH=       5    -9  46   1   1 file=diags/exf_zflux_set1.0000000005
 Computing Diagnostic #    221  EXFatemp     Counter:       1   Parms: SM      U1      
(PID.TID 0000.0001)  MDS_WRITE_FIELD: it,rec,kS,kL,kH=       5   -10  46   1   1 file=diags/exf_zflux_set1.0000000005
 Computing Diagnostic #    222  EXFaqh       Counter:       1   Parms: SM      U1      
(PID.TID 0000.0001)  MDS_WRITE_FIELD: it,rec,kS,kL,kH=       5   -11  46   1   1 file=diags/exf_zflux_set1.0000000005
 Computing Diagnostic #    214  EXFtaux      Counter:       1   Parms: UM      U1      
(PID.TID 0000.0001)  MDS_WRITE_FIELD: it,rec,kS,kL,kH=       5   -12  46   1   1 file=diags/exf_zflux_set1.0000000005
 Computing Diagnostic #    215  EXFtauy      Counter:       1   Parms: VM      U1      
(PID.TID 0000.0001)  MDS_WRITE_FIELD: it,rec,kS,kL,kH=       5   -13  46   1   1 file=diags/exf_zflux_set1.0000000005
 Computing Diagnostic #    216  EXFuwind     Counter:       1   Parms: UM      U1      
(PID.TID 0000.0001)  MDS_WRITE_FIELD: it,rec,kS,kL,kH=       5   -14  46   1   1 file=diags/exf_zflux_set1.0000000005
 Computing Diagnostic #    217  EXFvwind     Counter:       1   Parms: VM      U1      
(PID.TID 0000.0001)  MDS_WRITE_FIELD: it,rec,kS,kL,kH=       5   -15  46   1   1 file=diags/exf_zflux_set1.0000000005
 Computing Diagnostic #    227  EXFpress     Counter:       1   Parms: SM      U1      
(PID.TID 0000.0001)  MDS_WRITE_FIELD: it,rec,kS,kL,kH=       5   -16  46   1   1 file=diags/exf_zflux_set1.0000000005
 Computing Diagnostic #    207  EXFhs        Counter:       1   Parms: SM      U1      
(PID.TID 0000.0001)  MDS_WRITE_FIELD: it,rec,kS,kL,kH=       5   -17  46   1   1 file=diags/exf_zflux_set1.0000000005
 Computing Diagnostic #    208  EXFhl        Counter:       1   Parms: SM      U1      
(PID.TID 0000.0001)  MDS_WRITE_FIELD: it,rec,kS,kL,kH=       5   -18  46   1   1 file=diags/exf_zflux_set1.0000000005
(PID.TID 0000.0001)  write diagnostics summary to file: diagnostics_status.0000000005.txt
(PID.TID 0000.0001)  MDS_WRITE_FIELD: it,rec,kS,kL,kH=       5     1  23   1  23 file=pickup_cd.0000000005
(PID.TID 0000.0001)  MDS_WRITE_FIELD: it,rec,kS,kL,kH=       5     2  23   1  23 file=pickup_cd.0000000005
(PID.TID 0000.0001)  MDS_WRITE_FIELD: it,rec,kS,kL,kH=       5     3  23   1  23 file=pickup_cd.0000000005
(PID.TID 0000.0001)  MDS_WRITE_FIELD: it,rec,kS,kL,kH=       5     4  23   1  23 file=pickup_cd.0000000005
(PID.TID 0000.0001)  MDS_WRITE_FIELD: it,rec,kS,kL,kH=       5    93   1   1   1 file=pickup_cd.0000000005
(PID.TID 0000.0001)  MDS_WRITE_FIELD: it,rec,kS,kL,kH=       5    -1   7   1   7 file=pickup_seaice.0000000005
(PID.TID 0000.0001)  MDS_WRITE_FIELD: it,rec,kS,kL,kH=       5    -8   1   1   1 file=pickup_seaice.0000000005
(PID.TID 0000.0001)  MDS_WRITE_FIELD: it,rec,kS,kL,kH=       5    -9   1   1   1 file=pickup_seaice.0000000005
(PID.TID 0000.0001)  MDS_WRITE_FIELD: it,rec,kS,kL,kH=       5   -10   1   1   1 file=pickup_seaice.0000000005
(PID.TID 0000.0001)  MDS_WRITE_FIELD: it,rec,kS,kL,kH=       5   -11   1   1   1 file=pickup_seaice.0000000005
(PID.TID 0000.0001)  MDS_WRITE_FIELD: it,rec,kS,kL,kH=       5   -12   1   1   1 file=pickup_seaice.0000000005
(PID.TID 0000.0001)  MDS_WRITE_FIELD: it,rec,kS,kL,kH=       5   -13   1   1   1 file=pickup_seaice.0000000005
(PID.TID 0000.0001)  MDS_WRITE_FIELD: it,rec,kS,kL,kH=       5    -1  23   1  23 file=pickup.0000000005
(PID.TID 0000.0001)  MDS_WRITE_FIELD: it,rec,kS,kL,kH=       5    -2  23   1  23 file=pickup.0000000005
(PID.TID 0000.0001)  MDS_WRITE_FIELD: it,rec,kS,kL,kH=       5    -3  23   1  23 file=pickup.0000000005
(PID.TID 0000.0001)  MDS_WRITE_FIELD: it,rec,kS,kL,kH=       5    -4  23   1  23 file=pickup.0000000005
(PID.TID 0000.0001)  MDS_WRITE_FIELD: it,rec,kS,kL,kH=       5    -5  23   1  23 file=pickup.0000000005
(PID.TID 0000.0001)  MDS_WRITE_FIELD: it,rec,kS,kL,kH=       5    -6  23   1  23 file=pickup.0000000005
(PID.TID 0000.0001)  MDS_WRITE_FIELD: it,rec,kS,kL,kH=       5  -139   1   1   1 file=pickup.0000000005
(PID.TID 0000.0001)  MDS_WRITE_FIELD: it,rec,kS,kL,kH=       5  -140   1   1   1 file=pickup.0000000005
(PID.TID 0000.0001)  MDS_WRITE_FIELD: it,rec,kS,kL,kH=       5  -141   1   1   1 file=pickup.0000000005
(PID.TID 0000.0001) %CHECKPOINT         5 0000000005
(PID.TID 0000.0001)  MDS_WRITE_FIELD: it,rec,kS,kL,kH=       1     6   1   1   1 file=m_sst_step.0000000001
(PID.TID 0000.0001)  MDS_READ_FIELD: opening global file: xx_atemp.effective.0000000001.data
(PID.TID 0000.0001) EXF_SET_FLD: processing field "climsss",  file: SSS_monthly.labsea1979
(PID.TID 0000.0001) EXF_SET_FLD:   myIter, count0, count1:         5      1      2
(PID.TID 0000.0001) EXF_SET_FLD:   first, changed, fac:   F   F    0.49316939890710387
(PID.TID 0000.0001) EXF_SET_FLD: processing field "uwind",  file: u10m.labsea1979
(PID.TID 0000.0001) EXF_SET_FLD:   myIter, count0, count1:         5      1      2
(PID.TID 0000.0001) EXF_SET_FLD:   first, changed, fac:   F   F    0.49316939890710387
(PID.TID 0000.0001) EXF_SET_FLD: processing field "vwind",  file: v10m.labsea1979
(PID.TID 0000.0001) EXF_SET_FLD:   myIter, count0, count1:         5      1      2
(PID.TID 0000.0001) EXF_SET_FLD:   first, changed, fac:   F   F    0.49316939890710387
(PID.TID 0000.0001) EXF_SET_FLD: processing field "atemp",  file: tair.labsea1979
(PID.TID 0000.0001) EXF_SET_FLD:   myIter, count0, count1:         5      1      2
(PID.TID 0000.0001) EXF_SET_FLD:   first, changed, fac:   F   F    0.49316939890710387
(PID.TID 0000.0001) EXF_SET_FLD: processing field "aqh",  file: qa.labsea1979
(PID.TID 0000.0001) EXF_SET_FLD:   myIter, count0, count1:         5      1      2
(PID.TID 0000.0001) EXF_SET_FLD:   first, changed, fac:   F   F    0.49316939890710387
(PID.TID 0000.0001) EXF_SET_FLD: processing field "precip",  file: prate.labsea1979
(PID.TID 0000.0001) EXF_SET_FLD:   myIter, count0, count1:         5      1      2
(PID.TID 0000.0001) EXF_SET_FLD:   first, changed, fac:   F   F    0.49316939890710387
(PID.TID 0000.0001) EXF_SET_FLD: processing field "swdown",  file: fsh.labsea1979
(PID.TID 0000.0001) EXF_SET_FLD:   myIter, count0, count1:         5      1      2
(PID.TID 0000.0001) EXF_SET_FLD:   first, changed, fac:   F   F    0.49316939890710387
(PID.TID 0000.0001) EXF_SET_FLD: processing field "lwdown",  file: flo.labsea1979
(PID.TID 0000.0001) EXF_SET_FLD:   myIter, count0, count1:         5      1      2
(PID.TID 0000.0001) EXF_SET_FLD:   first, changed, fac:   F   F    0.49316939890710387
(PID.TID 0000.0001) // =======================================================
(PID.TID 0000.0001) // Begin MONITOR EXF statistics
(PID.TID 0000.0001) // =======================================================
(PID.TID 0000.0001) %MON exf_tsnumber                 =                     5
(PID.TID 0000.0001) %MON exf_time_sec                 =   1.8000000000000E+04
(PID.TID 0000.0001) %MON exf_ustress_max              =   5.2025127547947E-02
(PID.TID 0000.0001) %MON exf_ustress_min              =  -9.3606971766443E-02
(PID.TID 0000.0001) %MON exf_ustress_mean             =   1.7413931450019E-02
(PID.TID 0000.0001) %MON exf_ustress_sd               =   2.3372101097223E-02
(PID.TID 0000.0001) %MON exf_ustress_del2             =   7.1291780542006E-04
(PID.TID 0000.0001) %MON exf_vstress_max              =   5.3724482011054E-02
(PID.TID 0000.0001) %MON exf_vstress_min              =  -5.8242413269710E-02
(PID.TID 0000.0001) %MON exf_vstress_mean             =  -5.4113452221391E-03
(PID.TID 0000.0001) %MON exf_vstress_sd               =   1.4300676376251E-02
(PID.TID 0000.0001) %MON exf_vstress_del2             =   5.1762341959457E-04
(PID.TID 0000.0001) %MON exf_hflux_max                =   6.2296786437778E+02
(PID.TID 0000.0001) %MON exf_hflux_min                =  -4.8169693752397E+01
(PID.TID 0000.0001) %MON exf_hflux_mean               =   1.4935910592580E+02
(PID.TID 0000.0001) %MON exf_hflux_sd                 =   1.7865414337686E+02
(PID.TID 0000.0001) %MON exf_hflux_del2               =   5.2840805855828E+00
(PID.TID 0000.0001) %MON exf_sflux_max                =   4.0171881872879E-08
(PID.TID 0000.0001) %MON exf_sflux_min                =  -8.8515542028482E-08
(PID.TID 0000.0001) %MON exf_sflux_mean               =  -2.5898272257469E-08
(PID.TID 0000.0001) %MON exf_sflux_sd                 =   3.0761455913950E-08
(PID.TID 0000.0001) %MON exf_sflux_del2               =   9.5819223274860E-10
(PID.TID 0000.0001) %MON exf_uwind_max                =   6.4669118044806E+00
(PID.TID 0000.0001) %MON exf_uwind_min                =  -6.8373719818605E+00
(PID.TID 0000.0001) %MON exf_uwind_mean               =   2.7703104953251E+00
(PID.TID 0000.0001) %MON exf_uwind_sd                 =   2.9914204817202E+00
(PID.TID 0000.0001) %MON exf_uwind_del2               =   8.0271974598066E-02
(PID.TID 0000.0001) %MON exf_vwind_max                =   3.9242191164871E+00
(PID.TID 0000.0001) %MON exf_vwind_min                =  -6.0151738390896E+00
(PID.TID 0000.0001) %MON exf_vwind_mean               =  -7.5780981579906E-01
(PID.TID 0000.0001) %MON exf_vwind_sd                 =   1.7298850990135E+00
(PID.TID 0000.0001) %MON exf_vwind_del2               =   4.8614292446199E-02
(PID.TID 0000.0001) %MON exf_wspeed_max               =   7.8834733013142E+00
(PID.TID 0000.0001) %MON exf_wspeed_min               =   4.5913801314248E-01
(PID.TID 0000.0001) %MON exf_wspeed_mean              =   4.1986352194932E+00
(PID.TID 0000.0001) %MON exf_wspeed_sd                =   1.6004553118739E+00
(PID.TID 0000.0001) %MON exf_wspeed_del2              =   1.3308433427277E-01
(PID.TID 0000.0001) %MON exf_atemp_max                =   2.8222425173567E+02
(PID.TID 0000.0001) %MON exf_atemp_min                =   2.3678944426573E+02
(PID.TID 0000.0001) %MON exf_atemp_mean               =   2.6427283741463E+02
(PID.TID 0000.0001) %MON exf_atemp_sd                 =   1.1990725231039E+01
(PID.TID 0000.0001) %MON exf_atemp_del2               =   1.6502924898699E-01
(PID.TID 0000.0001) %MON exf_aqh_max                  =   6.3196902393613E-03
(PID.TID 0000.0001) %MON exf_aqh_min                  =   1.6322223068205E-04
(PID.TID 0000.0001) %MON exf_aqh_mean                 =   2.4775611281656E-03
(PID.TID 0000.0001) %MON exf_aqh_sd                   =   1.4259923191659E-03
(PID.TID 0000.0001) %MON exf_aqh_del2                 =   1.7537489941007E-05
(PID.TID 0000.0001) %MON exf_lwflux_max               =   1.8504686817546E+02
(PID.TID 0000.0001) %MON exf_lwflux_min               =   3.4516075409599E+01
(PID.TID 0000.0001) %MON exf_lwflux_mean              =   8.1597296647891E+01
(PID.TID 0000.0001) %MON exf_lwflux_sd                =   4.1719355838112E+01
(PID.TID 0000.0001) %MON exf_lwflux_del2              =   8.9604887623858E-01
(PID.TID 0000.0001) %MON exf_evap_max                 =   4.6492776142320E-08
(PID.TID 0000.0001) %MON exf_evap_min                 =  -5.1936928492714E-09
(PID.TID 0000.0001) %MON exf_evap_mean                =   1.0491754065444E-08
(PID.TID 0000.0001) %MON exf_evap_sd                  =   1.1510581093485E-08
(PID.TID 0000.0001) %MON exf_evap_del2                =   4.5193200791708E-10
(PID.TID 0000.0001) %MON exf_precip_max               =   1.0499457022082E-07
(PID.TID 0000.0001) %MON exf_precip_min               =   2.7292535458031E-10
(PID.TID 0000.0001) %MON exf_precip_mean              =   3.6390026322913E-08
(PID.TID 0000.0001) %MON exf_precip_sd                =   2.0580406889746E-08
(PID.TID 0000.0001) %MON exf_precip_del2              =   8.1073423988765E-10
(PID.TID 0000.0001) %MON exf_swflux_max               =  -8.1207169861090E-02
(PID.TID 0000.0001) %MON exf_swflux_min               =  -6.4067465766532E+01
(PID.TID 0000.0001) %MON exf_swflux_mean              =  -2.6505884102323E+01
(PID.TID 0000.0001) %MON exf_swflux_sd                =   1.9645085084315E+01
(PID.TID 0000.0001) %MON exf_swflux_del2              =   8.9712389757958E-02
(PID.TID 0000.0001) %MON exf_swdown_max               =   7.1186073073924E+01
(PID.TID 0000.0001) %MON exf_swdown_min               =   9.0230188734544E-02
(PID.TID 0000.0001) %MON exf_swdown_mean              =   2.9450982335914E+01
(PID.TID 0000.0001) %MON exf_swdown_sd                =   2.1827872315905E+01
(PID.TID 0000.0001) %MON exf_swdown_del2              =   9.9680433064398E-02
(PID.TID 0000.0001) %MON exf_lwdown_max               =   3.0563558759846E+02
(PID.TID 0000.0001) %MON exf_lwdown_min               =   1.1592215771493E+02
(PID.TID 0000.0001) %MON exf_lwdown_mean              =   2.2587078031381E+02
(PID.TID 0000.0001) %MON exf_lwdown_sd                =   4.6297287802066E+01
(PID.TID 0000.0001) %MON exf_lwdown_del2              =   9.0906618417827E-01
(PID.TID 0000.0001) %MON exf_climsss_max              =   3.5041254622037E+01
(PID.TID 0000.0001) %MON exf_climsss_min              =   3.0670109811376E+01
(PID.TID 0000.0001) %MON exf_climsss_mean             =   3.3461926268386E+01
(PID.TID 0000.0001) %MON exf_climsss_sd               =   1.0315988331065E+00
(PID.TID 0000.0001) %MON exf_climsss_del2             =   2.6971039929381E-02
(PID.TID 0000.0001) // =======================================================
(PID.TID 0000.0001) // End MONITOR EXF statistics
(PID.TID 0000.0001) // =======================================================
DEBUG_STATS_RL: Uice pre  iter (SEAICE_LSR  1)  min= -9.02121933428159E-03
DEBUG_STATS_RL: Uice pre  iter (SEAICE_LSR  1)  max=  2.19445684647109E-01
DEBUG_STATS_RL: Uice pre  iter (SEAICE_LSR  1) mean=  6.96639305502532E-02
DEBUG_STATS_RL: Uice pre  iter (SEAICE_LSR  1) S.D.=  7.25590715280224E-02
DEBUG_STATS_RL: Vice pre  iter (SEAICE_LSR  1)  min= -1.73112057819563E-01
DEBUG_STATS_RL: Vice pre  iter (SEAICE_LSR  1)  max=  1.05174802576008E-01
DEBUG_STATS_RL: Vice pre  iter (SEAICE_LSR  1) mean= -3.44957645455127E-02
DEBUG_STATS_RL: Vice pre  iter (SEAICE_LSR  1) S.D.=  5.17027322842165E-02
DEBUG_STATS_RL: Uice pre  iter (SEAICE_LSR  2)  min= -9.93295031152210E-03
DEBUG_STATS_RL: Uice pre  iter (SEAICE_LSR  2)  max=  2.37649472779152E-01
DEBUG_STATS_RL: Uice pre  iter (SEAICE_LSR  2) mean=  7.08960993522900E-02
DEBUG_STATS_RL: Uice pre  iter (SEAICE_LSR  2) S.D.=  7.51814019583860E-02
DEBUG_STATS_RL: Vice pre  iter (SEAICE_LSR  2)  min= -1.73458139241626E-01
DEBUG_STATS_RL: Vice pre  iter (SEAICE_LSR  2)  max=  1.02503634704982E-01
DEBUG_STATS_RL: Vice pre  iter (SEAICE_LSR  2) mean= -3.89801386768760E-02
DEBUG_STATS_RL: Vice pre  iter (SEAICE_LSR  2) S.D.=  5.44920749395038E-02
DEBUG_STATS_RL:                EtaN (DYNAMICS)  min= -1.29709672821213E-01
DEBUG_STATS_RL:                EtaN (DYNAMICS)  max=  3.25626876398477E-01
DEBUG_STATS_RL:                EtaN (DYNAMICS) mean= -3.00841690122536E-03
DEBUG_STATS_RL:                EtaN (DYNAMICS) S.D.=  7.54180814594036E-02
DEBUG_STATS_RL:                Uvel (DYNAMICS)  min= -3.64296443204224E-02
DEBUG_STATS_RL:                Uvel (DYNAMICS)  max=  8.91662112566489E-02
DEBUG_STATS_RL:                Uvel (DYNAMICS) mean=  5.18186102505262E-03
DEBUG_STATS_RL:                Uvel (DYNAMICS) S.D.=  1.36791834404111E-02
DEBUG_STATS_RL:                Vvel (DYNAMICS)  min= -8.48427067731397E-02
DEBUG_STATS_RL:                Vvel (DYNAMICS)  max=  7.15709637633448E-02
DEBUG_STATS_RL:                Vvel (DYNAMICS) mean= -6.25663991250223E-04
DEBUG_STATS_RL:                Vvel (DYNAMICS) S.D.=  1.65568599029307E-02
DEBUG_STATS_RL:                Wvel (DYNAMICS)  min= -2.02998023749463E-04
DEBUG_STATS_RL:                Wvel (DYNAMICS)  max=  3.07634744219620E-04
DEBUG_STATS_RL:                Wvel (DYNAMICS) mean= -2.14485636605179E-07
DEBUG_STATS_RL:                Wvel (DYNAMICS) S.D.=  2.56514188295233E-05
DEBUG_STATS_RL:               Theta (DYNAMICS)  min= -1.95891909892377E+00
DEBUG_STATS_RL:               Theta (DYNAMICS)  max=  1.32575107273067E+01
DEBUG_STATS_RL:               Theta (DYNAMICS) mean=  2.41560973729717E+00
DEBUG_STATS_RL:               Theta (DYNAMICS) S.D.=  2.57506629522921E+00
DEBUG_STATS_RL:                Salt (DYNAMICS)  min=  2.76241835718781E+01
DEBUG_STATS_RL:                Salt (DYNAMICS)  max=  3.54512322319690E+01
DEBUG_STATS_RL:                Salt (DYNAMICS) mean=  3.39367610972827E+01
DEBUG_STATS_RL:                Salt (DYNAMICS) S.D.=  1.15400523729775E+00
DEBUG_STATS_RL:                  Gu (DYNAMICS)  min= -3.40661284878781E-02
DEBUG_STATS_RL:                  Gu (DYNAMICS)  max=  1.09592409505601E-01
DEBUG_STATS_RL:                  Gu (DYNAMICS) mean=  3.43340148231612E-03
DEBUG_STATS_RL:                  Gu (DYNAMICS) S.D.=  1.52106643070904E-02
DEBUG_STATS_RL:                  Gv (DYNAMICS)  min= -1.19743996000496E-01
DEBUG_STATS_RL:                  Gv (DYNAMICS)  max=  5.31755908727337E-02
DEBUG_STATS_RL:                  Gv (DYNAMICS) mean= -6.43607759844673E-03
DEBUG_STATS_RL:                  Gv (DYNAMICS) S.D.=  1.74595586593132E-02
DEBUG_STATS_RL:               GuNm1 (DYNAMICS)  min= -2.94347299884301E-07
DEBUG_STATS_RL:               GuNm1 (DYNAMICS)  max=  1.78770581560375E-07
DEBUG_STATS_RL:               GuNm1 (DYNAMICS) mean= -3.06311171945198E-09
DEBUG_STATS_RL:               GuNm1 (DYNAMICS) S.D.=  4.19614199163276E-08
DEBUG_STATS_RL:               GvNm1 (DYNAMICS)  min= -1.82273635415880E-07
DEBUG_STATS_RL:               GvNm1 (DYNAMICS)  max=  1.24273330978528E-07
DEBUG_STATS_RL:               GvNm1 (DYNAMICS) mean= -1.05360009952046E-09
DEBUG_STATS_RL:               GvNm1 (DYNAMICS) S.D.=  3.58773704868012E-08
DEBUG_STATS_RL:               GtNm1 (DYNAMICS)  min=  0.00000000000000E+00
DEBUG_STATS_RL:               GtNm1 (DYNAMICS)  max=  0.00000000000000E+00
DEBUG_STATS_RL:               GtNm1 (DYNAMICS) mean=  0.00000000000000E+00
DEBUG_STATS_RL:               GtNm1 (DYNAMICS) S.D.=  0.00000000000000E+00
DEBUG_STATS_RL:               GsNm1 (DYNAMICS)  min=  0.00000000000000E+00
DEBUG_STATS_RL:               GsNm1 (DYNAMICS)  max=  0.00000000000000E+00
DEBUG_STATS_RL:               GsNm1 (DYNAMICS) mean=  0.00000000000000E+00
DEBUG_STATS_RL:               GsNm1 (DYNAMICS) S.D.=  0.00000000000000E+00
DEBUG_STATS_RL:    cg2d_b (SOLVE_FOR_PRESSURE)  min= -7.45833771571459E+03
DEBUG_STATS_RL:    cg2d_b (SOLVE_FOR_PRESSURE)  max=  2.17494903027769E+03
DEBUG_STATS_RL:    cg2d_b (SOLVE_FOR_PRESSURE) mean=  4.18935997004155E-13
DEBUG_STATS_RL:    cg2d_b (SOLVE_FOR_PRESSURE) S.D.=  9.06377010650268E+02
 cg2d: Sum(rhs),rhsMax =   8.29197821516914E-15  1.20041496847834E+00
DEBUG_STATS_RL:    cg2d_x (SOLVE_FOR_PRESSURE)  min= -1.23196163368130E+00
DEBUG_STATS_RL:    cg2d_x (SOLVE_FOR_PRESSURE)  max=  3.23727429689848E+00
DEBUG_STATS_RL:    cg2d_x (SOLVE_FOR_PRESSURE) mean= -3.45194761148230E-02
DEBUG_STATS_RL:    cg2d_x (SOLVE_FOR_PRESSURE) S.D.=  7.10912240392561E-01
(PID.TID 0000.0001)      cg2d_init_res =   7.77205564074111E-02
(PID.TID 0000.0001)      cg2d_iters(min,last) =      -1      44
(PID.TID 0000.0001)      cg2d_last_res =   3.78154127695059E-14
DEBUG_STATS_RL:          Uvel (THERMODYNAMICS)  min= -3.59096386964102E-02
DEBUG_STATS_RL:          Uvel (THERMODYNAMICS)  max=  1.01288605318195E-01
DEBUG_STATS_RL:          Uvel (THERMODYNAMICS) mean=  5.06442107691443E-03
DEBUG_STATS_RL:          Uvel (THERMODYNAMICS) S.D.=  1.40087544095653E-02
DEBUG_STATS_RL:          Vvel (THERMODYNAMICS)  min= -1.10756263988798E-01
DEBUG_STATS_RL:          Vvel (THERMODYNAMICS)  max=  7.07208418107748E-02
DEBUG_STATS_RL:          Vvel (THERMODYNAMICS) mean= -2.17557054828444E-03
DEBUG_STATS_RL:          Vvel (THERMODYNAMICS) S.D.=  1.80912833066385E-02
DEBUG_STATS_RL:          Wvel (THERMODYNAMICS)  min= -2.43811460414301E-04
DEBUG_STATS_RL:          Wvel (THERMODYNAMICS)  max=  3.28816353261790E-04
DEBUG_STATS_RL:          Wvel (THERMODYNAMICS) mean= -1.37923543342930E-07
DEBUG_STATS_RL:          Wvel (THERMODYNAMICS) S.D.=  2.75149300864468E-05
DEBUG_STATS_RL:         Theta (THERMODYNAMICS)  min= -1.96015217723737E+00
DEBUG_STATS_RL:         Theta (THERMODYNAMICS)  max=  1.32512671183370E+01
DEBUG_STATS_RL:         Theta (THERMODYNAMICS) mean=  2.41531606071968E+00
DEBUG_STATS_RL:         Theta (THERMODYNAMICS) S.D.=  2.57483151675911E+00
DEBUG_STATS_RL:          Salt (THERMODYNAMICS)  min=  2.76290307531745E+01
DEBUG_STATS_RL:          Salt (THERMODYNAMICS)  max=  3.54512307060718E+01
DEBUG_STATS_RL:          Salt (THERMODYNAMICS) mean=  3.39367446276238E+01
DEBUG_STATS_RL:          Salt (THERMODYNAMICS) S.D.=  1.15382313156805E+00
DEBUG_STATS_RL:         GtNm1 (THERMODYNAMICS)  min=  0.00000000000000E+00
DEBUG_STATS_RL:         GtNm1 (THERMODYNAMICS)  max=  0.00000000000000E+00
DEBUG_STATS_RL:         GtNm1 (THERMODYNAMICS) mean=  0.00000000000000E+00
DEBUG_STATS_RL:         GtNm1 (THERMODYNAMICS) S.D.=  0.00000000000000E+00
DEBUG_STATS_RL:         GsNm1 (THERMODYNAMICS)  min=  0.00000000000000E+00
DEBUG_STATS_RL:         GsNm1 (THERMODYNAMICS)  max=  0.00000000000000E+00
DEBUG_STATS_RL:         GsNm1 (THERMODYNAMICS) mean=  0.00000000000000E+00
DEBUG_STATS_RL:         GsNm1 (THERMODYNAMICS) S.D.=  0.00000000000000E+00
(PID.TID 0000.0001) // =======================================================
(PID.TID 0000.0001) // Begin MONITOR dynamic field statistics
(PID.TID 0000.0001) // =======================================================
(PID.TID 0000.0001) %MON time_tsnumber                =                     6
(PID.TID 0000.0001) %MON time_secondsf                =   2.1600000000000E+04
(PID.TID 0000.0001) %MON dynstat_eta_max              =   3.2980910967220E-01
(PID.TID 0000.0001) %MON dynstat_eta_min              =  -1.2551057843446E-01
(PID.TID 0000.0001) %MON dynstat_eta_mean             =  -3.4551515210578E-16
(PID.TID 0000.0001) %MON dynstat_eta_sd               =   7.9756929802667E-02
(PID.TID 0000.0001) %MON dynstat_eta_del2             =   2.2526762869836E-03
(PID.TID 0000.0001) %MON dynstat_uvel_max             =   1.0128860531819E-01
(PID.TID 0000.0001) %MON dynstat_uvel_min             =  -3.5909638696410E-02
(PID.TID 0000.0001) %MON dynstat_uvel_mean            =   5.0699973946868E-04
(PID.TID 0000.0001) %MON dynstat_uvel_sd              =   8.2243381079779E-03
(PID.TID 0000.0001) %MON dynstat_uvel_del2            =   3.2267465968285E-04
(PID.TID 0000.0001) %MON dynstat_vvel_max             =   7.0720841810775E-02
(PID.TID 0000.0001) %MON dynstat_vvel_min             =  -1.1075626398880E-01
(PID.TID 0000.0001) %MON dynstat_vvel_mean            =  -3.1204228061697E-04
(PID.TID 0000.0001) %MON dynstat_vvel_sd              =   9.4412568494778E-03
(PID.TID 0000.0001) %MON dynstat_vvel_del2            =   2.2335139662046E-04
(PID.TID 0000.0001) %MON dynstat_wvel_max             =   3.2881635326179E-04
(PID.TID 0000.0001) %MON dynstat_wvel_min             =  -2.4381146041430E-04
(PID.TID 0000.0001) %MON dynstat_wvel_mean            =   1.0936390170538E-21
(PID.TID 0000.0001) %MON dynstat_wvel_sd              =   5.4173049241075E-05
(PID.TID 0000.0001) %MON dynstat_wvel_del2            =   8.6691740567471E-07
(PID.TID 0000.0001) %MON dynstat_theta_max            =   1.3251267118337E+01
(PID.TID 0000.0001) %MON dynstat_theta_min            =  -1.9601521772374E+00
(PID.TID 0000.0001) %MON dynstat_theta_mean           =   3.0732563509114E+00
(PID.TID 0000.0001) %MON dynstat_theta_sd             =   1.4280861043723E+00
(PID.TID 0000.0001) %MON dynstat_theta_del2           =   9.8336792993238E-03
(PID.TID 0000.0001) %MON dynstat_salt_max             =   3.5451230706072E+01
(PID.TID 0000.0001) %MON dynstat_salt_min             =   2.7629030753175E+01
(PID.TID 0000.0001) %MON dynstat_salt_mean            =   3.4746190387727E+01
(PID.TID 0000.0001) %MON dynstat_salt_sd              =   5.1267164525303E-01
(PID.TID 0000.0001) %MON dynstat_salt_del2            =   3.6509497524948E-03
(PID.TID 0000.0001) %MON dynstat_sst_max              =   5.4939870174841E+00
(PID.TID 0000.0001) %MON dynstat_sst_min              =  -1.9601521772374E+00
(PID.TID 0000.0001) %MON dynstat_sst_mean             =  -1.2408924198752E+00
(PID.TID 0000.0001) %MON dynstat_sst_sd               =   1.4403697741512E+00
(PID.TID 0000.0001) %MON dynstat_sst_del2             =   3.0469598764514E-02
(PID.TID 0000.0001) %MON dynstat_sss_max              =   3.2699533411077E+01
(PID.TID 0000.0001) %MON dynstat_sss_min              =   2.7629030753175E+01
(PID.TID 0000.0001) %MON dynstat_sss_mean             =   3.1224067918224E+01
(PID.TID 0000.0001) %MON dynstat_sss_sd               =   1.1632977612747E+00
(PID.TID 0000.0001) %MON dynstat_sss_del2             =   2.2332435514896E-02
(PID.TID 0000.0001) %MON forcing_qnet_max             =   1.4809504730571E+02
(PID.TID 0000.0001) %MON forcing_qnet_min             =  -4.8169693752397E+01
(PID.TID 0000.0001) %MON forcing_qnet_mean            =   3.4204041626544E+01
(PID.TID 0000.0001) %MON forcing_qnet_sd              =   3.9102479859055E+01
(PID.TID 0000.0001) %MON forcing_qnet_del2            =   3.0822543339815E+00
(PID.TID 0000.0001) %MON forcing_qsw_max              =   0.0000000000000E+00
(PID.TID 0000.0001) %MON forcing_qsw_min              =  -6.4067465766532E+01
(PID.TID 0000.0001) %MON forcing_qsw_mean             =  -1.6508178061872E+01
(PID.TID 0000.0001) %MON forcing_qsw_sd               =   2.3071275893855E+01
(PID.TID 0000.0001) %MON forcing_qsw_del2             =   1.0599232445071E+00
(PID.TID 0000.0001) %MON forcing_empmr_max            =   7.9533187250553E-05
(PID.TID 0000.0001) %MON forcing_empmr_min            =  -3.5085884727389E-04
(PID.TID 0000.0001) %MON forcing_empmr_mean           =  -6.2267177770676E-05
(PID.TID 0000.0001) %MON forcing_empmr_sd             =   8.3723214513405E-05
(PID.TID 0000.0001) %MON forcing_empmr_del2           =   8.0139709599093E-06
(PID.TID 0000.0001) %MON forcing_fu_max               =   7.8677164942646E-02
(PID.TID 0000.0001) %MON forcing_fu_min               =  -5.3029686046339E-03
(PID.TID 0000.0001) %MON forcing_fu_mean              =   2.4502703175175E-02
(PID.TID 0000.0001) %MON forcing_fu_sd                =   2.2381392605381E-02
(PID.TID 0000.0001) %MON forcing_fu_del2              =   1.0099969362325E-03
(PID.TID 0000.0001) %MON forcing_fv_max               =   1.0529820675179E-02
(PID.TID 0000.0001) %MON forcing_fv_min               =  -6.1500664983111E-02
(PID.TID 0000.0001) %MON forcing_fv_mean              =  -8.7085786162427E-03
(PID.TID 0000.0001) %MON forcing_fv_sd                =   1.5328325617483E-02
(PID.TID 0000.0001) %MON forcing_fv_del2              =   6.0851667438899E-04
(PID.TID 0000.0001) %MON trAdv_CFL_u_max              =   2.4993510275359E-03
(PID.TID 0000.0001) %MON trAdv_CFL_v_max              =   1.8374065630956E-03
(PID.TID 0000.0001) %MON trAdv_CFL_w_max              =   6.6516342133251E-03
(PID.TID 0000.0001) %MON advcfl_uvel_max              =   2.4992241384917E-03
(PID.TID 0000.0001) %MON advcfl_vvel_max              =   1.7928990215274E-03
(PID.TID 0000.0001) %MON advcfl_wvel_max              =   6.3206950153501E-03
(PID.TID 0000.0001) %MON advcfl_W_hf_max              =   7.5848340184201E-03
(PID.TID 0000.0001) %MON pe_b_mean                    =   2.0970544007866E-05
(PID.TID 0000.0001) %MON ke_max                       =   8.1403877418366E-03
(PID.TID 0000.0001) %MON ke_mean                      =   6.1552329715486E-05
(PID.TID 0000.0001) %MON ke_vol                       =   5.3036189546438E+15
(PID.TID 0000.0001) %MON vort_r_min                   =  -9.0690929664971E-07
(PID.TID 0000.0001) %MON vort_r_max                   =   4.2778475822572E-07
(PID.TID 0000.0001) %MON vort_a_mean                  =   1.2067277321409E-04
(PID.TID 0000.0001) %MON vort_a_sd                    =   8.8121135230902E-06
(PID.TID 0000.0001) %MON vort_p_mean                  =   1.7734842756493E-04
(PID.TID 0000.0001) %MON vort_p_sd                    =   1.1689574047703E-04
(PID.TID 0000.0001) %MON surfExpan_theta_mean         =   9.8182882285465E-07
(PID.TID 0000.0001) %MON surfExpan_salt_mean          =   8.4302295210227E-07
(PID.TID 0000.0001) // =======================================================
(PID.TID 0000.0001) // End MONITOR dynamic field statistics
(PID.TID 0000.0001) // =======================================================
(PID.TID 0000.0001) // =======================================================
(PID.TID 0000.0001) // Begin MONITOR SEAICE statistics
(PID.TID 0000.0001) // =======================================================
(PID.TID 0000.0001) %MON seaice_tsnumber              =                     6
(PID.TID 0000.0001) %MON seaice_time_sec              =   2.1600000000000E+04
(PID.TID 0000.0001) %MON seaice_uice_max              =   2.4085997379950E-01
(PID.TID 0000.0001) %MON seaice_uice_min              =  -1.1910675919661E-02
(PID.TID 0000.0001) %MON seaice_uice_mean             =   8.8258234061458E-02
(PID.TID 0000.0001) %MON seaice_uice_sd               =   7.6536719315543E-02
(PID.TID 0000.0001) %MON seaice_uice_del2             =   2.3916313334486E-03
(PID.TID 0000.0001) %MON seaice_vice_max              =   9.6635861308140E-02
(PID.TID 0000.0001) %MON seaice_vice_min              =  -1.7413234267821E-01
(PID.TID 0000.0001) %MON seaice_vice_mean             =  -4.3479920082434E-02
(PID.TID 0000.0001) %MON seaice_vice_sd               =   5.8397421936172E-02
(PID.TID 0000.0001) %MON seaice_vice_del2             =   1.8049354081115E-03
(PID.TID 0000.0001) %MON seaice_area_max              =   1.0000000000000E+00
(PID.TID 0000.0001) %MON seaice_area_min              =   0.0000000000000E+00
(PID.TID 0000.0001) %MON seaice_area_mean             =   6.3950277050931E-01
(PID.TID 0000.0001) %MON seaice_area_sd               =   4.7902023213597E-01
(PID.TID 0000.0001) %MON seaice_area_del2             =   3.0552145003478E-02
(PID.TID 0000.0001) %MON seaice_heff_max              =   5.7138299875921E-01
(PID.TID 0000.0001) %MON seaice_heff_min              =   0.0000000000000E+00
(PID.TID 0000.0001) %MON seaice_heff_mean             =   1.7795583501392E-01
(PID.TID 0000.0001) %MON seaice_heff_sd               =   1.8373921026293E-01
(PID.TID 0000.0001) %MON seaice_heff_del2             =   3.9824480115348E-03
(PID.TID 0000.0001) %MON seaice_hsnow_max             =   2.0007531378885E-01
(PID.TID 0000.0001) %MON seaice_hsnow_min             =   0.0000000000000E+00
(PID.TID 0000.0001) %MON seaice_hsnow_mean            =   6.3082445921493E-02
(PID.TID 0000.0001) %MON seaice_hsnow_sd              =   6.5122222822307E-02
(PID.TID 0000.0001) %MON seaice_hsnow_del2            =   1.4118006335029E-03
(PID.TID 0000.0001) %MON seaice_hsalt_max             =   5.0479553258779E+03
(PID.TID 0000.0001) %MON seaice_hsalt_min             =   0.0000000000000E+00
(PID.TID 0000.0001) %MON seaice_hsalt_mean            =   1.4636077146759E+03
(PID.TID 0000.0001) %MON seaice_hsalt_sd              =   1.5917999945543E+03
(PID.TID 0000.0001) %MON seaice_hsalt_del2            =   3.6125586495557E+01
(PID.TID 0000.0001) // =======================================================
(PID.TID 0000.0001) // End MONITOR SEAICE statistics
(PID.TID 0000.0001) // =======================================================
 Computing Diagnostic #     23  ETAN         Counter:       1   Parms: SM      M1      
(PID.TID 0000.0001)  MDS_WRITE_FIELD: it,rec,kS,kL,kH=       6    -1  46   1   1 file=diags/state_2d_set1.0000000006
 Computing Diagnostic #    294  SIarea       Counter:       1   Parms: SM      M1      
(PID.TID 0000.0001)  MDS_WRITE_FIELD: it,rec,kS,kL,kH=       6    -2  46   1   1 file=diags/state_2d_set1.0000000006
 Computing Diagnostic #    297  SIheff       Counter:       1   Parms: SM      M1      
(PID.TID 0000.0001)  MDS_WRITE_FIELD: it,rec,kS,kL,kH=       6    -3  46   1   1 file=diags/state_2d_set1.0000000006
 Computing Diagnostic #    299  SIhsnow      Counter:       1   Parms: SM      M1      
(PID.TID 0000.0001)  MDS_WRITE_FIELD: it,rec,kS,kL,kH=       6    -4  46   1   1 file=diags/state_2d_set1.0000000006
 Computing Diagnostic #     25  DETADT2      Counter:       1   Parms: SM      M1      
(PID.TID 0000.0001)  MDS_WRITE_FIELD: it,rec,kS,kL,kH=       6    -5  46   1   1 file=diags/state_2d_set1.0000000006
 Computing Diagnostic #     73  PHIBOT       Counter:       1   Parms: SM      M1      
(PID.TID 0000.0001)  MDS_WRITE_FIELD: it,rec,kS,kL,kH=       6    -6  46   1   1 file=diags/state_2d_set1.0000000006
 Computing Diagnostic #     82  sIceLoad     Counter:       1   Parms: SM      U1      
(PID.TID 0000.0001)  MDS_WRITE_FIELD: it,rec,kS,kL,kH=       6    -7  46   1   1 file=diags/state_2d_set1.0000000006
 Computing Diagnostic #     76  MXLDEPTH     Counter:       1   Parms: SM      M1      
(PID.TID 0000.0001)  MDS_WRITE_FIELD: it,rec,kS,kL,kH=       6    -8  46   1   1 file=diags/state_2d_set1.0000000006
 Computing Diagnostic #    325  SIatmFW      Counter:       1   Parms: SM      U1      
(PID.TID 0000.0001)  MDS_WRITE_FIELD: it,rec,kS,kL,kH=       6    -9  46   1   1 file=diags/state_2d_set1.0000000006
 Computing Diagnostic #     85  oceQnet      Counter:       1   Parms: SM      U1      
(PID.TID 0000.0001)  MDS_WRITE_FIELD: it,rec,kS,kL,kH=       6   -10  46   1   1 file=diags/state_2d_set1.0000000006
 Computing Diagnostic #     83  oceFWflx     Counter:       1   Parms: SM      U1      
(PID.TID 0000.0001)  MDS_WRITE_FIELD: it,rec,kS,kL,kH=       6   -11  46   1   1 file=diags/state_2d_set1.0000000006
 Computing Diagnostic #     79  oceTAUX      Counter:       1   Parms: UU      U1      
           Vector  Mate for  oceTAUX      Diagnostic #     80  oceTAUY  exists 
(PID.TID 0000.0001)  MDS_WRITE_FIELD: it,rec,kS,kL,kH=       6   -12  46   1   1 file=diags/state_2d_set1.0000000006
 Computing Diagnostic #     80  oceTAUY      Counter:       1   Parms: VV      U1      
           Vector  Mate for  oceTAUY      Diagnostic #     79  oceTAUX  exists 
(PID.TID 0000.0001)  MDS_WRITE_FIELD: it,rec,kS,kL,kH=       6   -13  46   1   1 file=diags/state_2d_set1.0000000006
 Computing Diagnostic #    311  SIuice       Counter:       1   Parms: UU      M1      
           Vector  Mate for  SIuice       Diagnostic #    312  SIvice   exists 
(PID.TID 0000.0001)  MDS_WRITE_FIELD: it,rec,kS,kL,kH=       6   -14  46   1   1 file=diags/state_2d_set1.0000000006
 Computing Diagnostic #    312  SIvice       Counter:       1   Parms: VV      M1      
           Vector  Mate for  SIvice       Diagnostic #    311  SIuice   exists 
(PID.TID 0000.0001)  MDS_WRITE_FIELD: it,rec,kS,kL,kH=       6   -15  46   1   1 file=diags/state_2d_set1.0000000006
 Computing Diagnostic #     24  ETANSQ       Counter:       1   Parms: SM P    M1      
(PID.TID 0000.0001)  MDS_WRITE_FIELD: it,rec,kS,kL,kH=       6   -16  46   1   1 file=diags/state_2d_set1.0000000006
 Computing Diagnostic #     26  THETA        Counter:       1   Parms: SMR     MR      
(PID.TID 0000.0001)  MDS_WRITE_FIELD: it,rec,kS,kL,kH=       6    -1  46   1  23 file=diags/state_3d_set1.0000000006
 Computing Diagnostic #     27  SALT         Counter:       1   Parms: SMR     MR      
(PID.TID 0000.0001)  MDS_WRITE_FIELD: it,rec,kS,kL,kH=       6    -2  46   1  23 file=diags/state_3d_set1.0000000006
 Computing Diagnostic #     45  UVELMASS     Counter:       1   Parms: UUr     MR      
           Vector  Mate for  UVELMASS     Diagnostic #     46  VVELMASS exists 
(PID.TID 0000.0001)  MDS_WRITE_FIELD: it,rec,kS,kL,kH=       6    -1  46   1  23 file=diags/trsp_3d_set1.0000000006
 Computing Diagnostic #     46  VVELMASS     Counter:       1   Parms: VVr     MR      
           Vector  Mate for  VVELMASS     Diagnostic #     45  UVELMASS exists 
(PID.TID 0000.0001)  MDS_WRITE_FIELD: it,rec,kS,kL,kH=       6    -2  46   1  23 file=diags/trsp_3d_set1.0000000006
 Computing Diagnostic #    224  EXFpreci     Counter:       1   Parms: SM      U1      
(PID.TID 0000.0001)  MDS_WRITE_FIELD: it,rec,kS,kL,kH=       6    -1  46   1   1 file=diags/exf_zflux_set1.0000000006
 Computing Diagnostic #    223  EXFevap      Counter:       1   Parms: SM      U1      
(PID.TID 0000.0001)  MDS_WRITE_FIELD: it,rec,kS,kL,kH=       6    -2  46   1   1 file=diags/exf_zflux_set1.0000000006
 Computing Diagnostic #    228  EXFroff      Counter:       1   Parms: SM      U1      
(PID.TID 0000.0001)  MDS_WRITE_FIELD: it,rec,kS,kL,kH=       6    -3  46   1   1 file=diags/exf_zflux_set1.0000000006
 Computing Diagnostic #    226  EXFempmr     Counter:       1   Parms: SM      U1      
(PID.TID 0000.0001)  MDS_WRITE_FIELD: it,rec,kS,kL,kH=       6    -4  46   1   1 file=diags/exf_zflux_set1.0000000006
 Computing Diagnostic #    212  EXFswdn      Counter:       1   Parms: SM      U1      
(PID.TID 0000.0001)  MDS_WRITE_FIELD: it,rec,kS,kL,kH=       6    -5  46   1   1 file=diags/exf_zflux_set1.0000000006
 Computing Diagnostic #    211  EXFlwdn      Counter:       1   Parms: SM      U1      
(PID.TID 0000.0001)  MDS_WRITE_FIELD: it,rec,kS,kL,kH=       6    -6  46   1   1 file=diags/exf_zflux_set1.0000000006
 Computing Diagnostic #    210  EXFswnet     Counter:       1   Parms: SM      U1      
(PID.TID 0000.0001)  MDS_WRITE_FIELD: it,rec,kS,kL,kH=       6    -7  46   1   1 file=diags/exf_zflux_set1.0000000006
 Computing Diagnostic #    209  EXFlwnet     Counter:       1   Parms: SM      U1      
(PID.TID 0000.0001)  MDS_WRITE_FIELD: it,rec,kS,kL,kH=       6    -8  46   1   1 file=diags/exf_zflux_set1.0000000006
 Computing Diagnostic #    213  EXFqnet      Counter:       1   Parms: SM      U1      
(PID.TID 0000.0001)  MDS_WRITE_FIELD: it,rec,kS,kL,kH=       6    -9  46   1   1 file=diags/exf_zflux_set1.0000000006
 Computing Diagnostic #    221  EXFatemp     Counter:       1   Parms: SM      U1      
(PID.TID 0000.0001)  MDS_WRITE_FIELD: it,rec,kS,kL,kH=       6   -10  46   1   1 file=diags/exf_zflux_set1.0000000006
 Computing Diagnostic #    222  EXFaqh       Counter:       1   Parms: SM      U1      
(PID.TID 0000.0001)  MDS_WRITE_FIELD: it,rec,kS,kL,kH=       6   -11  46   1   1 file=diags/exf_zflux_set1.0000000006
 Computing Diagnostic #    214  EXFtaux      Counter:       1   Parms: UM      U1      
(PID.TID 0000.0001)  MDS_WRITE_FIELD: it,rec,kS,kL,kH=       6   -12  46   1   1 file=diags/exf_zflux_set1.0000000006
 Computing Diagnostic #    215  EXFtauy      Counter:       1   Parms: VM      U1      
(PID.TID 0000.0001)  MDS_WRITE_FIELD: it,rec,kS,kL,kH=       6   -13  46   1   1 file=diags/exf_zflux_set1.0000000006
 Computing Diagnostic #    216  EXFuwind     Counter:       1   Parms: UM      U1      
(PID.TID 0000.0001)  MDS_WRITE_FIELD: it,rec,kS,kL,kH=       6   -14  46   1   1 file=diags/exf_zflux_set1.0000000006
 Computing Diagnostic #    217  EXFvwind     Counter:       1   Parms: VM      U1      
(PID.TID 0000.0001)  MDS_WRITE_FIELD: it,rec,kS,kL,kH=       6   -15  46   1   1 file=diags/exf_zflux_set1.0000000006
 Computing Diagnostic #    227  EXFpress     Counter:       1   Parms: SM      U1      
(PID.TID 0000.0001)  MDS_WRITE_FIELD: it,rec,kS,kL,kH=       6   -16  46   1   1 file=diags/exf_zflux_set1.0000000006
 Computing Diagnostic #    207  EXFhs        Counter:       1   Parms: SM      U1      
(PID.TID 0000.0001)  MDS_WRITE_FIELD: it,rec,kS,kL,kH=       6   -17  46   1   1 file=diags/exf_zflux_set1.0000000006
 Computing Diagnostic #    208  EXFhl        Counter:       1   Parms: SM      U1      
(PID.TID 0000.0001)  MDS_WRITE_FIELD: it,rec,kS,kL,kH=       6   -18  46   1   1 file=diags/exf_zflux_set1.0000000006
(PID.TID 0000.0001)  write diagnostics summary to file: diagnostics_status.0000000006.txt
(PID.TID 0000.0001)  MDS_WRITE_FIELD: it,rec,kS,kL,kH=       6     1  23   1  23 file=pickup_cd.0000000006
(PID.TID 0000.0001)  MDS_WRITE_FIELD: it,rec,kS,kL,kH=       6     2  23   1  23 file=pickup_cd.0000000006
(PID.TID 0000.0001)  MDS_WRITE_FIELD: it,rec,kS,kL,kH=       6     3  23   1  23 file=pickup_cd.0000000006
(PID.TID 0000.0001)  MDS_WRITE_FIELD: it,rec,kS,kL,kH=       6     4  23   1  23 file=pickup_cd.0000000006
(PID.TID 0000.0001)  MDS_WRITE_FIELD: it,rec,kS,kL,kH=       6    93   1   1   1 file=pickup_cd.0000000006
(PID.TID 0000.0001)  MDS_WRITE_FIELD: it,rec,kS,kL,kH=       6    -1   7   1   7 file=pickup_seaice.0000000006
(PID.TID 0000.0001)  MDS_WRITE_FIELD: it,rec,kS,kL,kH=       6    -8   1   1   1 file=pickup_seaice.0000000006
(PID.TID 0000.0001)  MDS_WRITE_FIELD: it,rec,kS,kL,kH=       6    -9   1   1   1 file=pickup_seaice.0000000006
(PID.TID 0000.0001)  MDS_WRITE_FIELD: it,rec,kS,kL,kH=       6   -10   1   1   1 file=pickup_seaice.0000000006
(PID.TID 0000.0001)  MDS_WRITE_FIELD: it,rec,kS,kL,kH=       6   -11   1   1   1 file=pickup_seaice.0000000006
(PID.TID 0000.0001)  MDS_WRITE_FIELD: it,rec,kS,kL,kH=       6   -12   1   1   1 file=pickup_seaice.0000000006
(PID.TID 0000.0001)  MDS_WRITE_FIELD: it,rec,kS,kL,kH=       6   -13   1   1   1 file=pickup_seaice.0000000006
(PID.TID 0000.0001)  MDS_WRITE_FIELD: it,rec,kS,kL,kH=       6    -1  23   1  23 file=pickup.0000000006
(PID.TID 0000.0001)  MDS_WRITE_FIELD: it,rec,kS,kL,kH=       6    -2  23   1  23 file=pickup.0000000006
(PID.TID 0000.0001)  MDS_WRITE_FIELD: it,rec,kS,kL,kH=       6    -3  23   1  23 file=pickup.0000000006
(PID.TID 0000.0001)  MDS_WRITE_FIELD: it,rec,kS,kL,kH=       6    -4  23   1  23 file=pickup.0000000006
(PID.TID 0000.0001)  MDS_WRITE_FIELD: it,rec,kS,kL,kH=       6    -5  23   1  23 file=pickup.0000000006
(PID.TID 0000.0001)  MDS_WRITE_FIELD: it,rec,kS,kL,kH=       6    -6  23   1  23 file=pickup.0000000006
(PID.TID 0000.0001)  MDS_WRITE_FIELD: it,rec,kS,kL,kH=       6  -139   1   1   1 file=pickup.0000000006
(PID.TID 0000.0001)  MDS_WRITE_FIELD: it,rec,kS,kL,kH=       6  -140   1   1   1 file=pickup.0000000006
(PID.TID 0000.0001)  MDS_WRITE_FIELD: it,rec,kS,kL,kH=       6  -141   1   1   1 file=pickup.0000000006
(PID.TID 0000.0001) %CHECKPOINT         6 0000000006
(PID.TID 0000.0001)  MDS_WRITE_FIELD: it,rec,kS,kL,kH=       1     7   1   1   1 file=m_sst_step.0000000001
(PID.TID 0000.0001)  MDS_READ_FIELD: opening global file: xx_atemp.effective.0000000001.data
(PID.TID 0000.0001) EXF_SET_FLD: processing field "climsss",  file: SSS_monthly.labsea1979
(PID.TID 0000.0001) EXF_SET_FLD:   myIter, count0, count1:         6      1      2
(PID.TID 0000.0001) EXF_SET_FLD:   first, changed, fac:   F   F    0.49180327868852458
(PID.TID 0000.0001) EXF_SET_FLD: processing field "uwind",  file: u10m.labsea1979
(PID.TID 0000.0001) EXF_SET_FLD:   myIter, count0, count1:         6      1      2
(PID.TID 0000.0001) EXF_SET_FLD:   first, changed, fac:   F   F    0.49180327868852458
(PID.TID 0000.0001) EXF_SET_FLD: processing field "vwind",  file: v10m.labsea1979
(PID.TID 0000.0001) EXF_SET_FLD:   myIter, count0, count1:         6      1      2
(PID.TID 0000.0001) EXF_SET_FLD:   first, changed, fac:   F   F    0.49180327868852458
(PID.TID 0000.0001) EXF_SET_FLD: processing field "atemp",  file: tair.labsea1979
(PID.TID 0000.0001) EXF_SET_FLD:   myIter, count0, count1:         6      1      2
(PID.TID 0000.0001) EXF_SET_FLD:   first, changed, fac:   F   F    0.49180327868852458
(PID.TID 0000.0001) EXF_SET_FLD: processing field "aqh",  file: qa.labsea1979
(PID.TID 0000.0001) EXF_SET_FLD:   myIter, count0, count1:         6      1      2
(PID.TID 0000.0001) EXF_SET_FLD:   first, changed, fac:   F   F    0.49180327868852458
(PID.TID 0000.0001) EXF_SET_FLD: processing field "precip",  file: prate.labsea1979
(PID.TID 0000.0001) EXF_SET_FLD:   myIter, count0, count1:         6      1      2
(PID.TID 0000.0001) EXF_SET_FLD:   first, changed, fac:   F   F    0.49180327868852458
(PID.TID 0000.0001) EXF_SET_FLD: processing field "swdown",  file: fsh.labsea1979
(PID.TID 0000.0001) EXF_SET_FLD:   myIter, count0, count1:         6      1      2
(PID.TID 0000.0001) EXF_SET_FLD:   first, changed, fac:   F   F    0.49180327868852458
(PID.TID 0000.0001) EXF_SET_FLD: processing field "lwdown",  file: flo.labsea1979
(PID.TID 0000.0001) EXF_SET_FLD:   myIter, count0, count1:         6      1      2
(PID.TID 0000.0001) EXF_SET_FLD:   first, changed, fac:   F   F    0.49180327868852458
(PID.TID 0000.0001) // =======================================================
(PID.TID 0000.0001) // Begin MONITOR EXF statistics
(PID.TID 0000.0001) // =======================================================
(PID.TID 0000.0001) %MON exf_tsnumber                 =                     6
(PID.TID 0000.0001) %MON exf_time_sec                 =   2.1600000000000E+04
(PID.TID 0000.0001) %MON exf_ustress_max              =   5.1999687271220E-02
(PID.TID 0000.0001) %MON exf_ustress_min              =  -9.3582232062428E-02
(PID.TID 0000.0001) %MON exf_ustress_mean             =   1.7371606854737E-02
(PID.TID 0000.0001) %MON exf_ustress_sd               =   2.3346076593825E-02
(PID.TID 0000.0001) %MON exf_ustress_del2             =   7.1280906339131E-04
(PID.TID 0000.0001) %MON exf_vstress_max              =   5.3710485684438E-02
(PID.TID 0000.0001) %MON exf_vstress_min              =  -5.8202269830865E-02
(PID.TID 0000.0001) %MON exf_vstress_mean             =  -5.4017142103257E-03
(PID.TID 0000.0001) %MON exf_vstress_sd               =   1.4291054902594E-02
(PID.TID 0000.0001) %MON exf_vstress_del2             =   5.1792541302638E-04
(PID.TID 0000.0001) %MON exf_hflux_max                =   6.2211188935256E+02
(PID.TID 0000.0001) %MON exf_hflux_min                =  -4.8233164788795E+01
(PID.TID 0000.0001) %MON exf_hflux_mean               =   1.4906539993267E+02
(PID.TID 0000.0001) %MON exf_hflux_sd                 =   1.7850959861429E+02
(PID.TID 0000.0001) %MON exf_hflux_del2               =   5.2772126229603E+00
(PID.TID 0000.0001) %MON exf_sflux_max                =   4.0156460739539E-08
(PID.TID 0000.0001) %MON exf_sflux_min                =  -8.8491661834517E-08
(PID.TID 0000.0001) %MON exf_sflux_mean               =  -2.5899023230362E-08
(PID.TID 0000.0001) %MON exf_sflux_sd                 =   3.0753926965498E-08
(PID.TID 0000.0001) %MON exf_sflux_del2               =   9.5842086521836E-10
(PID.TID 0000.0001) %MON exf_uwind_max                =   6.4674192569295E+00
(PID.TID 0000.0001) %MON exf_uwind_min                =  -6.8373987635628E+00
(PID.TID 0000.0001) %MON exf_uwind_mean               =   2.7704180476695E+00
(PID.TID 0000.0001) %MON exf_uwind_sd                 =   2.9916966488382E+00
(PID.TID 0000.0001) %MON exf_uwind_del2               =   8.0271791541414E-02
(PID.TID 0000.0001) %MON exf_vwind_max                =   3.9242492972827E+00
(PID.TID 0000.0001) %MON exf_vwind_min                =  -6.0142679292648E+00
(PID.TID 0000.0001) %MON exf_vwind_mean               =  -7.5719204270894E-01
(PID.TID 0000.0001) %MON exf_vwind_sd                 =   1.7299937065642E+00
(PID.TID 0000.0001) %MON exf_vwind_del2               =   4.8614164244439E-02
(PID.TID 0000.0001) %MON exf_wspeed_max               =   7.8835115525503E+00
(PID.TID 0000.0001) %MON exf_wspeed_min               =   4.5889518386928E-01
(PID.TID 0000.0001) %MON exf_wspeed_mean              =   4.1987383082859E+00
(PID.TID 0000.0001) %MON exf_wspeed_sd                =   1.6007122259633E+00
(PID.TID 0000.0001) %MON exf_wspeed_del2              =   1.3308959148978E-01
(PID.TID 0000.0001) %MON exf_atemp_max                =   2.8227253958280E+02
(PID.TID 0000.0001) %MON exf_atemp_min                =   2.3683497929808E+02
(PID.TID 0000.0001) %MON exf_atemp_mean               =   2.6431819332927E+02
(PID.TID 0000.0001) %MON exf_atemp_sd                 =   1.1992188200331E+01
(PID.TID 0000.0001) %MON exf_atemp_del2               =   1.6503800216198E-01
(PID.TID 0000.0001) %MON exf_aqh_max                  =   6.3189936985002E-03
(PID.TID 0000.0001) %MON exf_aqh_min                  =   1.6312812718364E-04
(PID.TID 0000.0001) %MON exf_aqh_mean                 =   2.4770007717611E-03
(PID.TID 0000.0001) %MON exf_aqh_sd                   =   1.4258893952382E-03
(PID.TID 0000.0001) %MON exf_aqh_del2                 =   1.7535631762858E-05
(PID.TID 0000.0001) %MON exf_lwflux_max               =   1.8505639905837E+02
(PID.TID 0000.0001) %MON exf_lwflux_min               =   3.4525968339334E+01
(PID.TID 0000.0001) %MON exf_lwflux_mean              =   8.1615243213266E+01
(PID.TID 0000.0001) %MON exf_lwflux_sd                =   4.1714947238783E+01
(PID.TID 0000.0001) %MON exf_lwflux_del2              =   8.9600122100586E-01
(PID.TID 0000.0001) %MON exf_evap_max                 =   4.6476692298049E-08
(PID.TID 0000.0001) %MON exf_evap_min                 =  -5.1620310887308E-09
(PID.TID 0000.0001) %MON exf_evap_mean                =   1.0490992248517E-08
(PID.TID 0000.0001) %MON exf_evap_sd                  =   1.1503160843955E-08
(PID.TID 0000.0001) %MON exf_evap_del2                =   4.5190874880728E-10
(PID.TID 0000.0001) %MON exf_precip_max               =   1.0499595166344E-07
(PID.TID 0000.0001) %MON exf_precip_min               =   2.7279142810763E-10
(PID.TID 0000.0001) %MON exf_precip_mean              =   3.6390015478879E-08
(PID.TID 0000.0001) %MON exf_precip_sd                =   2.0580860600171E-08
(PID.TID 0000.0001) %MON exf_precip_del2              =   8.1093194829687E-10
(PID.TID 0000.0001) %MON exf_swflux_max               =  -8.1207452738871E-02
(PID.TID 0000.0001) %MON exf_swflux_min               =  -6.4086336117103E+01
(PID.TID 0000.0001) %MON exf_swflux_mean              =  -2.6516416318198E+01
(PID.TID 0000.0001) %MON exf_swflux_sd                =   1.9648923659484E+01
(PID.TID 0000.0001) %MON exf_swflux_del2              =   8.9741128190352E-02
(PID.TID 0000.0001) %MON exf_swdown_max               =   7.1207040130115E+01
(PID.TID 0000.0001) %MON exf_swdown_min               =   9.0230503043190E-02
(PID.TID 0000.0001) %MON exf_swdown_mean              =   2.9462684797997E+01
(PID.TID 0000.0001) %MON exf_swdown_sd                =   2.1832137399427E+01
(PID.TID 0000.0001) %MON exf_swdown_del2              =   9.9712364655946E-02
(PID.TID 0000.0001) %MON exf_lwdown_max               =   3.0562676151463E+02
(PID.TID 0000.0001) %MON exf_lwdown_min               =   1.1590705083628E+02
(PID.TID 0000.0001) %MON exf_lwdown_mean              =   2.2585507298474E+02
(PID.TID 0000.0001) %MON exf_lwdown_sd                =   4.6301263017486E+01
(PID.TID 0000.0001) %MON exf_lwdown_del2              =   9.0911423554589E-01
(PID.TID 0000.0001) %MON exf_climsss_max              =   3.5041439369077E+01
(PID.TID 0000.0001) %MON exf_climsss_min              =   3.0670869139374E+01
(PID.TID 0000.0001) %MON exf_climsss_mean             =   3.3462447601866E+01
(PID.TID 0000.0001) %MON exf_climsss_sd               =   1.0315283113566E+00
(PID.TID 0000.0001) %MON exf_climsss_del2             =   2.6970144903599E-02
(PID.TID 0000.0001) // =======================================================
(PID.TID 0000.0001) // End MONITOR EXF statistics
(PID.TID 0000.0001) // =======================================================
DEBUG_STATS_RL: Uice pre  iter (SEAICE_LSR  1)  min= -1.19106759196614E-02
DEBUG_STATS_RL: Uice pre  iter (SEAICE_LSR  1)  max=  2.40859973799500E-01
DEBUG_STATS_RL: Uice pre  iter (SEAICE_LSR  1) mean=  7.02597534860948E-02
DEBUG_STATS_RL: Uice pre  iter (SEAICE_LSR  1) S.D.=  7.57773428259753E-02
DEBUG_STATS_RL: Vice pre  iter (SEAICE_LSR  1)  min= -1.74132342678207E-01
DEBUG_STATS_RL: Vice pre  iter (SEAICE_LSR  1)  max=  9.66358613081399E-02
DEBUG_STATS_RL: Vice pre  iter (SEAICE_LSR  1) mean= -4.28491368242810E-02
DEBUG_STATS_RL: Vice pre  iter (SEAICE_LSR  1) S.D.=  5.63763392291550E-02
DEBUG_STATS_RL: Uice pre  iter (SEAICE_LSR  2)  min= -1.30564509125757E-02
DEBUG_STATS_RL: Uice pre  iter (SEAICE_LSR  2)  max=  2.47901039964918E-01
DEBUG_STATS_RL: Uice pre  iter (SEAICE_LSR  2) mean=  6.80717062410296E-02
DEBUG_STATS_RL: Uice pre  iter (SEAICE_LSR  2) S.D.=  7.48548542542582E-02
DEBUG_STATS_RL: Vice pre  iter (SEAICE_LSR  2)  min= -1.68314830999124E-01
DEBUG_STATS_RL: Vice pre  iter (SEAICE_LSR  2)  max=  8.87290074915900E-02
DEBUG_STATS_RL: Vice pre  iter (SEAICE_LSR  2) mean= -4.61137817409455E-02
DEBUG_STATS_RL: Vice pre  iter (SEAICE_LSR  2) S.D.=  5.74118961796309E-02
DEBUG_STATS_RL:                EtaN (DYNAMICS)  min= -1.25510578434462E-01
DEBUG_STATS_RL:                EtaN (DYNAMICS)  max=  3.29809109672203E-01
DEBUG_STATS_RL:                EtaN (DYNAMICS) mean= -3.51679735470302E-03
DEBUG_STATS_RL:                EtaN (DYNAMICS) S.D.=  7.24267737471536E-02
DEBUG_STATS_RL:                Uvel (DYNAMICS)  min= -3.59096386964102E-02
DEBUG_STATS_RL:                Uvel (DYNAMICS)  max=  1.01288605318195E-01
DEBUG_STATS_RL:                Uvel (DYNAMICS) mean=  5.06442107691443E-03
DEBUG_STATS_RL:                Uvel (DYNAMICS) S.D.=  1.40087544095653E-02
DEBUG_STATS_RL:                Vvel (DYNAMICS)  min= -1.10756263988798E-01
DEBUG_STATS_RL:                Vvel (DYNAMICS)  max=  7.07208418107748E-02
DEBUG_STATS_RL:                Vvel (DYNAMICS) mean= -2.17557054828444E-03
DEBUG_STATS_RL:                Vvel (DYNAMICS) S.D.=  1.80912833066385E-02
DEBUG_STATS_RL:                Wvel (DYNAMICS)  min= -2.43811460414301E-04
DEBUG_STATS_RL:                Wvel (DYNAMICS)  max=  3.28816353261790E-04
DEBUG_STATS_RL:                Wvel (DYNAMICS) mean= -1.37923543342930E-07
DEBUG_STATS_RL:                Wvel (DYNAMICS) S.D.=  2.75149300864468E-05
DEBUG_STATS_RL:               Theta (DYNAMICS)  min= -1.96015217723737E+00
DEBUG_STATS_RL:               Theta (DYNAMICS)  max=  1.32512671183370E+01
DEBUG_STATS_RL:               Theta (DYNAMICS) mean=  2.41531606071968E+00
DEBUG_STATS_RL:               Theta (DYNAMICS) S.D.=  2.57483151675911E+00
DEBUG_STATS_RL:                Salt (DYNAMICS)  min=  2.76290307531745E+01
DEBUG_STATS_RL:                Salt (DYNAMICS)  max=  3.54512307060718E+01
DEBUG_STATS_RL:                Salt (DYNAMICS) mean=  3.39367446276238E+01
DEBUG_STATS_RL:                Salt (DYNAMICS) S.D.=  1.15382313156805E+00
DEBUG_STATS_RL:                  Gu (DYNAMICS)  min= -4.45840116890899E-02
DEBUG_STATS_RL:                  Gu (DYNAMICS)  max=  1.13252404039500E-01
DEBUG_STATS_RL:                  Gu (DYNAMICS) mean=  3.02808241161229E-03
DEBUG_STATS_RL:                  Gu (DYNAMICS) S.D.=  1.59063121238893E-02
DEBUG_STATS_RL:                  Gv (DYNAMICS)  min= -1.34630447324912E-01
DEBUG_STATS_RL:                  Gv (DYNAMICS)  max=  4.81174890382835E-02
DEBUG_STATS_RL:                  Gv (DYNAMICS) mean= -7.41639241987065E-03
DEBUG_STATS_RL:                  Gv (DYNAMICS) S.D.=  1.85638365104700E-02
DEBUG_STATS_RL:               GuNm1 (DYNAMICS)  min= -3.33271036892904E-07
DEBUG_STATS_RL:               GuNm1 (DYNAMICS)  max=  1.87479663955270E-07
DEBUG_STATS_RL:               GuNm1 (DYNAMICS) mean= -3.31200046769952E-09
DEBUG_STATS_RL:               GuNm1 (DYNAMICS) S.D.=  4.08419141881971E-08
DEBUG_STATS_RL:               GvNm1 (DYNAMICS)  min= -2.04912919624491E-07
DEBUG_STATS_RL:               GvNm1 (DYNAMICS)  max=  1.56710147054438E-07
DEBUG_STATS_RL:               GvNm1 (DYNAMICS) mean= -8.96938696731291E-10
DEBUG_STATS_RL:               GvNm1 (DYNAMICS) S.D.=  3.95873164870957E-08
DEBUG_STATS_RL:               GtNm1 (DYNAMICS)  min=  0.00000000000000E+00
DEBUG_STATS_RL:               GtNm1 (DYNAMICS)  max=  0.00000000000000E+00
DEBUG_STATS_RL:               GtNm1 (DYNAMICS) mean=  0.00000000000000E+00
DEBUG_STATS_RL:               GtNm1 (DYNAMICS) S.D.=  0.00000000000000E+00
DEBUG_STATS_RL:               GsNm1 (DYNAMICS)  min=  0.00000000000000E+00
DEBUG_STATS_RL:               GsNm1 (DYNAMICS)  max=  0.00000000000000E+00
DEBUG_STATS_RL:               GsNm1 (DYNAMICS) mean=  0.00000000000000E+00
DEBUG_STATS_RL:               GsNm1 (DYNAMICS) S.D.=  0.00000000000000E+00
DEBUG_STATS_RL:    cg2d_b (SOLVE_FOR_PRESSURE)  min= -7.43169656861245E+03
DEBUG_STATS_RL:    cg2d_b (SOLVE_FOR_PRESSURE)  max=  2.17598296942634E+03
DEBUG_STATS_RL:    cg2d_b (SOLVE_FOR_PRESSURE) mean=  6.96331881044898E-13
DEBUG_STATS_RL:    cg2d_b (SOLVE_FOR_PRESSURE) S.D.=  9.02750100849735E+02
 cg2d: Sum(rhs),rhsMax =   1.41067713066434E-14  1.19612709187932E+00
DEBUG_STATS_RL:    cg2d_x (SOLVE_FOR_PRESSURE)  min= -1.18794061890904E+00
DEBUG_STATS_RL:    cg2d_x (SOLVE_FOR_PRESSURE)  max=  3.24511049575726E+00
DEBUG_STATS_RL:    cg2d_x (SOLVE_FOR_PRESSURE) mean= -3.88654400025836E-02
DEBUG_STATS_RL:    cg2d_x (SOLVE_FOR_PRESSURE) S.D.=  6.81167535252279E-01
(PID.TID 0000.0001)      cg2d_init_res =   6.75087261058502E-02
(PID.TID 0000.0001)      cg2d_iters(min,last) =      -1      44
(PID.TID 0000.0001)      cg2d_last_res =   4.79854470369427E-14
DEBUG_STATS_RL:          Uvel (THERMODYNAMICS)  min= -3.57601727936033E-02
DEBUG_STATS_RL:          Uvel (THERMODYNAMICS)  max=  1.04775938290593E-01
DEBUG_STATS_RL:          Uvel (THERMODYNAMICS) mean=  4.39725630125182E-03
DEBUG_STATS_RL:          Uvel (THERMODYNAMICS) S.D.=  1.39028540310335E-02
DEBUG_STATS_RL:          Vvel (THERMODYNAMICS)  min= -1.27584762387762E-01
DEBUG_STATS_RL:          Vvel (THERMODYNAMICS)  max=  6.50083276838834E-02
DEBUG_STATS_RL:          Vvel (THERMODYNAMICS) mean= -3.36887217582008E-03
DEBUG_STATS_RL:          Vvel (THERMODYNAMICS) S.D.=  1.85890275650197E-02
DEBUG_STATS_RL:          Wvel (THERMODYNAMICS)  min= -2.67954696014334E-04
DEBUG_STATS_RL:          Wvel (THERMODYNAMICS)  max=  3.29804232734301E-04
DEBUG_STATS_RL:          Wvel (THERMODYNAMICS) mean= -4.85616750767614E-08
DEBUG_STATS_RL:          Wvel (THERMODYNAMICS) S.D.=  2.84164537902804E-05
DEBUG_STATS_RL:         Theta (THERMODYNAMICS)  min= -1.95963016104374E+00
DEBUG_STATS_RL:         Theta (THERMODYNAMICS)  max=  1.32396343409662E+01
DEBUG_STATS_RL:         Theta (THERMODYNAMICS) mean=  2.41506584132490E+00
DEBUG_STATS_RL:         Theta (THERMODYNAMICS) S.D.=  2.57443936967394E+00
DEBUG_STATS_RL:          Salt (THERMODYNAMICS)  min=  2.76338867569799E+01
DEBUG_STATS_RL:          Salt (THERMODYNAMICS)  max=  3.54511617149686E+01
DEBUG_STATS_RL:          Salt (THERMODYNAMICS) mean=  3.39367496241626E+01
DEBUG_STATS_RL:          Salt (THERMODYNAMICS) S.D.=  1.15359229307638E+00
DEBUG_STATS_RL:         GtNm1 (THERMODYNAMICS)  min=  0.00000000000000E+00
DEBUG_STATS_RL:         GtNm1 (THERMODYNAMICS)  max=  0.00000000000000E+00
DEBUG_STATS_RL:         GtNm1 (THERMODYNAMICS) mean=  0.00000000000000E+00
DEBUG_STATS_RL:         GtNm1 (THERMODYNAMICS) S.D.=  0.00000000000000E+00
DEBUG_STATS_RL:         GsNm1 (THERMODYNAMICS)  min=  0.00000000000000E+00
DEBUG_STATS_RL:         GsNm1 (THERMODYNAMICS)  max=  0.00000000000000E+00
DEBUG_STATS_RL:         GsNm1 (THERMODYNAMICS) mean=  0.00000000000000E+00
DEBUG_STATS_RL:         GsNm1 (THERMODYNAMICS) S.D.=  0.00000000000000E+00
(PID.TID 0000.0001) // =======================================================
(PID.TID 0000.0001) // Begin MONITOR dynamic field statistics
(PID.TID 0000.0001) // =======================================================
(PID.TID 0000.0001) %MON time_tsnumber                =                     7
(PID.TID 0000.0001) %MON time_secondsf                =   2.5200000000000E+04
(PID.TID 0000.0001) %MON dynstat_eta_max              =   3.3060745097164E-01
(PID.TID 0000.0001) %MON dynstat_eta_min              =  -1.2102577722289E-01
(PID.TID 0000.0001) %MON dynstat_eta_mean             =  -3.2761967839518E-16
(PID.TID 0000.0001) %MON dynstat_eta_sd               =   7.6689887548940E-02
(PID.TID 0000.0001) %MON dynstat_eta_del2             =   2.3512695689537E-03
(PID.TID 0000.0001) %MON dynstat_uvel_max             =   1.0477593829059E-01
(PID.TID 0000.0001) %MON dynstat_uvel_min             =  -3.5760172793603E-02
(PID.TID 0000.0001) %MON dynstat_uvel_mean            =   3.9142487791093E-04
(PID.TID 0000.0001) %MON dynstat_uvel_sd              =   8.6384196848567E-03
(PID.TID 0000.0001) %MON dynstat_uvel_del2            =   3.1514329361019E-04
(PID.TID 0000.0001) %MON dynstat_vvel_max             =   6.5008327683883E-02
(PID.TID 0000.0001) %MON dynstat_vvel_min             =  -1.2758476238776E-01
(PID.TID 0000.0001) %MON dynstat_vvel_mean            =  -1.6636191577720E-04
(PID.TID 0000.0001) %MON dynstat_vvel_sd              =   8.8216736418657E-03
(PID.TID 0000.0001) %MON dynstat_vvel_del2            =   2.4528337813958E-04
(PID.TID 0000.0001) %MON dynstat_wvel_max             =   3.2980423273430E-04
(PID.TID 0000.0001) %MON dynstat_wvel_min             =  -2.6795469601433E-04
(PID.TID 0000.0001) %MON dynstat_wvel_mean            =   1.1461584048784E-21
(PID.TID 0000.0001) %MON dynstat_wvel_sd              =   5.6131535081675E-05
(PID.TID 0000.0001) %MON dynstat_wvel_del2            =   8.7639476954987E-07
(PID.TID 0000.0001) %MON dynstat_theta_max            =   1.3239634340966E+01
(PID.TID 0000.0001) %MON dynstat_theta_min            =  -1.9596301610437E+00
(PID.TID 0000.0001) %MON dynstat_theta_mean           =   3.0732383286663E+00
(PID.TID 0000.0001) %MON dynstat_theta_sd             =   1.4280124129180E+00
(PID.TID 0000.0001) %MON dynstat_theta_del2           =   9.8240413861681E-03
(PID.TID 0000.0001) %MON dynstat_salt_max             =   3.5451161714969E+01
(PID.TID 0000.0001) %MON dynstat_salt_min             =   2.7633886756980E+01
(PID.TID 0000.0001) %MON dynstat_salt_mean            =   3.4746190402423E+01
(PID.TID 0000.0001) %MON dynstat_salt_sd              =   5.1262072486719E-01
(PID.TID 0000.0001) %MON dynstat_salt_del2            =   3.6490695700367E-03
(PID.TID 0000.0001) %MON dynstat_sst_max              =   5.4972691914919E+00
(PID.TID 0000.0001) %MON dynstat_sst_min              =  -1.9596301610437E+00
(PID.TID 0000.0001) %MON dynstat_sst_mean             =  -1.2398317360205E+00
(PID.TID 0000.0001) %MON dynstat_sst_sd               =   1.4412911356072E+00
(PID.TID 0000.0001) %MON dynstat_sst_del2             =   3.0404880391879E-02
(PID.TID 0000.0001) %MON dynstat_sss_max              =   3.2702310805654E+01
(PID.TID 0000.0001) %MON dynstat_sss_min              =   2.7633886756980E+01
(PID.TID 0000.0001) %MON dynstat_sss_mean             =   3.1225789693575E+01
(PID.TID 0000.0001) %MON dynstat_sss_sd               =   1.1629318554866E+00
(PID.TID 0000.0001) %MON dynstat_sss_del2             =   2.2314401886548E-02
(PID.TID 0000.0001) %MON forcing_qnet_max             =   1.9319010967837E+02
(PID.TID 0000.0001) %MON forcing_qnet_min             =  -4.8233164788795E+01
(PID.TID 0000.0001) %MON forcing_qnet_mean            =   2.8686105206761E+01
(PID.TID 0000.0001) %MON forcing_qnet_sd              =   4.0736418933318E+01
(PID.TID 0000.0001) %MON forcing_qnet_del2            =   2.5393398484447E+00
(PID.TID 0000.0001) %MON forcing_qsw_max              =   0.0000000000000E+00
(PID.TID 0000.0001) %MON forcing_qsw_min              =  -6.4086336117103E+01
(PID.TID 0000.0001) %MON forcing_qsw_mean             =  -1.6519156773687E+01
(PID.TID 0000.0001) %MON forcing_qsw_sd               =   2.3073141510053E+01
(PID.TID 0000.0001) %MON forcing_qsw_del2             =   1.0599885645713E+00
(PID.TID 0000.0001) %MON forcing_empmr_max            =   1.4582431250706E-04
(PID.TID 0000.0001) %MON forcing_empmr_min            =  -3.4626623312549E-04
(PID.TID 0000.0001) %MON forcing_empmr_mean           =  -4.5867293120499E-05
(PID.TID 0000.0001) %MON forcing_empmr_sd             =   9.4992180798625E-05
(PID.TID 0000.0001) %MON forcing_empmr_del2           =   6.7616748962019E-06
(PID.TID 0000.0001) %MON forcing_fu_max               =   7.9308568371693E-02
(PID.TID 0000.0001) %MON forcing_fu_min               =  -5.1939190574879E-03
(PID.TID 0000.0001) %MON forcing_fu_mean              =   2.4929425919503E-02
(PID.TID 0000.0001) %MON forcing_fu_sd                =   2.2484876955405E-02
(PID.TID 0000.0001) %MON forcing_fu_del2              =   1.0312786626247E-03
(PID.TID 0000.0001) %MON forcing_fv_max               =   1.0504652744095E-02
(PID.TID 0000.0001) %MON forcing_fv_min               =  -6.1585417981365E-02
(PID.TID 0000.0001) %MON forcing_fv_mean              =  -8.7091219355202E-03
(PID.TID 0000.0001) %MON forcing_fv_sd                =   1.5329992531755E-02
(PID.TID 0000.0001) %MON forcing_fv_del2              =   6.3080484737760E-04
(PID.TID 0000.0001) %MON trAdv_CFL_u_max              =   2.5854028516334E-03
(PID.TID 0000.0001) %MON trAdv_CFL_v_max              =   2.1165852956720E-03
(PID.TID 0000.0001) %MON trAdv_CFL_w_max              =   7.5732043306048E-03
(PID.TID 0000.0001) %MON advcfl_uvel_max              =   2.5852715938416E-03
(PID.TID 0000.0001) %MON advcfl_vvel_max              =   2.0653152012238E-03
(PID.TID 0000.0001) %MON advcfl_wvel_max              =   6.4104812771250E-03
(PID.TID 0000.0001) %MON advcfl_W_hf_max              =   7.5732043306048E-03
(PID.TID 0000.0001) %MON pe_b_mean                    =   1.9388715736636E-05
(PID.TID 0000.0001) %MON ke_max                       =   8.8270769496347E-03
(PID.TID 0000.0001) %MON ke_mean                      =   5.9835297968776E-05
(PID.TID 0000.0001) %MON ke_vol                       =   5.3036189546438E+15
(PID.TID 0000.0001) %MON vort_r_min                   =  -9.3478846467623E-07
(PID.TID 0000.0001) %MON vort_r_max                   =   4.4595584545647E-07
(PID.TID 0000.0001) %MON vort_a_mean                  =   1.2067277274431E-04
(PID.TID 0000.0001) %MON vort_a_sd                    =   8.8120317280436E-06
(PID.TID 0000.0001) %MON vort_p_mean                  =   1.7734842687451E-04
(PID.TID 0000.0001) %MON vort_p_sd                    =   1.1689304781653E-04
(PID.TID 0000.0001) %MON surfExpan_theta_mean         =   4.4766038183479E-07
(PID.TID 0000.0001) %MON surfExpan_salt_mean          =   7.7482944416019E-07
(PID.TID 0000.0001) // =======================================================
(PID.TID 0000.0001) // End MONITOR dynamic field statistics
(PID.TID 0000.0001) // =======================================================
(PID.TID 0000.0001) // =======================================================
(PID.TID 0000.0001) // Begin MONITOR SEAICE statistics
(PID.TID 0000.0001) // =======================================================
(PID.TID 0000.0001) %MON seaice_tsnumber              =                     7
(PID.TID 0000.0001) %MON seaice_time_sec              =   2.5200000000000E+04
(PID.TID 0000.0001) %MON seaice_uice_max              =   2.5352428629220E-01
(PID.TID 0000.0001) %MON seaice_uice_min              =  -1.5454919452587E-02
(PID.TID 0000.0001) %MON seaice_uice_mean             =   8.4683236037447E-02
(PID.TID 0000.0001) %MON seaice_uice_sd               =   7.6744875848075E-02
(PID.TID 0000.0001) %MON seaice_uice_del2             =   2.3762706997247E-03
(PID.TID 0000.0001) %MON seaice_vice_max              =   8.1085936845230E-02
(PID.TID 0000.0001) %MON seaice_vice_min              =  -1.6837318302127E-01
(PID.TID 0000.0001) %MON seaice_vice_mean             =  -5.1459065900639E-02
(PID.TID 0000.0001) %MON seaice_vice_sd               =   6.0582301095459E-02
(PID.TID 0000.0001) %MON seaice_vice_del2             =   1.9948346224041E-03
(PID.TID 0000.0001) %MON seaice_area_max              =   1.0000000000000E+00
(PID.TID 0000.0001) %MON seaice_area_min              =   0.0000000000000E+00
(PID.TID 0000.0001) %MON seaice_area_mean             =   6.3925874005073E-01
(PID.TID 0000.0001) %MON seaice_area_sd               =   4.7884166388071E-01
(PID.TID 0000.0001) %MON seaice_area_del2             =   3.0553605939393E-02
(PID.TID 0000.0001) %MON seaice_heff_max              =   5.7107536813538E-01
(PID.TID 0000.0001) %MON seaice_heff_min              =   0.0000000000000E+00
(PID.TID 0000.0001) %MON seaice_heff_mean             =   1.7792347676484E-01
(PID.TID 0000.0001) %MON seaice_heff_sd               =   1.8384328526307E-01
(PID.TID 0000.0001) %MON seaice_heff_del2             =   3.9832214736488E-03
(PID.TID 0000.0001) %MON seaice_hsnow_max             =   1.9999239662862E-01
(PID.TID 0000.0001) %MON seaice_hsnow_min             =   0.0000000000000E+00
(PID.TID 0000.0001) %MON seaice_hsnow_mean            =   6.3063304646044E-02
(PID.TID 0000.0001) %MON seaice_hsnow_sd              =   6.5149383804023E-02
(PID.TID 0000.0001) %MON seaice_hsnow_del2            =   1.4126464547144E-03
(PID.TID 0000.0001) %MON seaice_hsalt_max             =   5.0490210434576E+03
(PID.TID 0000.0001) %MON seaice_hsalt_min             =   0.0000000000000E+00
(PID.TID 0000.0001) %MON seaice_hsalt_mean            =   1.4632070317104E+03
(PID.TID 0000.0001) %MON seaice_hsalt_sd              =   1.5928918825375E+03
(PID.TID 0000.0001) %MON seaice_hsalt_del2            =   3.6097519927038E+01
(PID.TID 0000.0001) // =======================================================
(PID.TID 0000.0001) // End MONITOR SEAICE statistics
(PID.TID 0000.0001) // =======================================================
 Computing Diagnostic #     23  ETAN         Counter:       1   Parms: SM      M1      
(PID.TID 0000.0001)  MDS_WRITE_FIELD: it,rec,kS,kL,kH=       7    -1  46   1   1 file=diags/state_2d_set1.0000000007
 Computing Diagnostic #    294  SIarea       Counter:       1   Parms: SM      M1      
(PID.TID 0000.0001)  MDS_WRITE_FIELD: it,rec,kS,kL,kH=       7    -2  46   1   1 file=diags/state_2d_set1.0000000007
 Computing Diagnostic #    297  SIheff       Counter:       1   Parms: SM      M1      
(PID.TID 0000.0001)  MDS_WRITE_FIELD: it,rec,kS,kL,kH=       7    -3  46   1   1 file=diags/state_2d_set1.0000000007
 Computing Diagnostic #    299  SIhsnow      Counter:       1   Parms: SM      M1      
(PID.TID 0000.0001)  MDS_WRITE_FIELD: it,rec,kS,kL,kH=       7    -4  46   1   1 file=diags/state_2d_set1.0000000007
 Computing Diagnostic #     25  DETADT2      Counter:       1   Parms: SM      M1      
(PID.TID 0000.0001)  MDS_WRITE_FIELD: it,rec,kS,kL,kH=       7    -5  46   1   1 file=diags/state_2d_set1.0000000007
 Computing Diagnostic #     73  PHIBOT       Counter:       1   Parms: SM      M1      
(PID.TID 0000.0001)  MDS_WRITE_FIELD: it,rec,kS,kL,kH=       7    -6  46   1   1 file=diags/state_2d_set1.0000000007
 Computing Diagnostic #     82  sIceLoad     Counter:       1   Parms: SM      U1      
(PID.TID 0000.0001)  MDS_WRITE_FIELD: it,rec,kS,kL,kH=       7    -7  46   1   1 file=diags/state_2d_set1.0000000007
 Computing Diagnostic #     76  MXLDEPTH     Counter:       1   Parms: SM      M1      
(PID.TID 0000.0001)  MDS_WRITE_FIELD: it,rec,kS,kL,kH=       7    -8  46   1   1 file=diags/state_2d_set1.0000000007
 Computing Diagnostic #    325  SIatmFW      Counter:       1   Parms: SM      U1      
(PID.TID 0000.0001)  MDS_WRITE_FIELD: it,rec,kS,kL,kH=       7    -9  46   1   1 file=diags/state_2d_set1.0000000007
 Computing Diagnostic #     85  oceQnet      Counter:       1   Parms: SM      U1      
(PID.TID 0000.0001)  MDS_WRITE_FIELD: it,rec,kS,kL,kH=       7   -10  46   1   1 file=diags/state_2d_set1.0000000007
 Computing Diagnostic #     83  oceFWflx     Counter:       1   Parms: SM      U1      
(PID.TID 0000.0001)  MDS_WRITE_FIELD: it,rec,kS,kL,kH=       7   -11  46   1   1 file=diags/state_2d_set1.0000000007
 Computing Diagnostic #     79  oceTAUX      Counter:       1   Parms: UU      U1      
           Vector  Mate for  oceTAUX      Diagnostic #     80  oceTAUY  exists 
(PID.TID 0000.0001)  MDS_WRITE_FIELD: it,rec,kS,kL,kH=       7   -12  46   1   1 file=diags/state_2d_set1.0000000007
 Computing Diagnostic #     80  oceTAUY      Counter:       1   Parms: VV      U1      
           Vector  Mate for  oceTAUY      Diagnostic #     79  oceTAUX  exists 
(PID.TID 0000.0001)  MDS_WRITE_FIELD: it,rec,kS,kL,kH=       7   -13  46   1   1 file=diags/state_2d_set1.0000000007
 Computing Diagnostic #    311  SIuice       Counter:       1   Parms: UU      M1      
           Vector  Mate for  SIuice       Diagnostic #    312  SIvice   exists 
(PID.TID 0000.0001)  MDS_WRITE_FIELD: it,rec,kS,kL,kH=       7   -14  46   1   1 file=diags/state_2d_set1.0000000007
 Computing Diagnostic #    312  SIvice       Counter:       1   Parms: VV      M1      
           Vector  Mate for  SIvice       Diagnostic #    311  SIuice   exists 
(PID.TID 0000.0001)  MDS_WRITE_FIELD: it,rec,kS,kL,kH=       7   -15  46   1   1 file=diags/state_2d_set1.0000000007
 Computing Diagnostic #     24  ETANSQ       Counter:       1   Parms: SM P    M1      
(PID.TID 0000.0001)  MDS_WRITE_FIELD: it,rec,kS,kL,kH=       7   -16  46   1   1 file=diags/state_2d_set1.0000000007
 Computing Diagnostic #     26  THETA        Counter:       1   Parms: SMR     MR      
(PID.TID 0000.0001)  MDS_WRITE_FIELD: it,rec,kS,kL,kH=       7    -1  46   1  23 file=diags/state_3d_set1.0000000007
 Computing Diagnostic #     27  SALT         Counter:       1   Parms: SMR     MR      
(PID.TID 0000.0001)  MDS_WRITE_FIELD: it,rec,kS,kL,kH=       7    -2  46   1  23 file=diags/state_3d_set1.0000000007
 Computing Diagnostic #     45  UVELMASS     Counter:       1   Parms: UUr     MR      
           Vector  Mate for  UVELMASS     Diagnostic #     46  VVELMASS exists 
(PID.TID 0000.0001)  MDS_WRITE_FIELD: it,rec,kS,kL,kH=       7    -1  46   1  23 file=diags/trsp_3d_set1.0000000007
 Computing Diagnostic #     46  VVELMASS     Counter:       1   Parms: VVr     MR      
           Vector  Mate for  VVELMASS     Diagnostic #     45  UVELMASS exists 
(PID.TID 0000.0001)  MDS_WRITE_FIELD: it,rec,kS,kL,kH=       7    -2  46   1  23 file=diags/trsp_3d_set1.0000000007
 Computing Diagnostic #    224  EXFpreci     Counter:       1   Parms: SM      U1      
(PID.TID 0000.0001)  MDS_WRITE_FIELD: it,rec,kS,kL,kH=       7    -1  46   1   1 file=diags/exf_zflux_set1.0000000007
 Computing Diagnostic #    223  EXFevap      Counter:       1   Parms: SM      U1      
(PID.TID 0000.0001)  MDS_WRITE_FIELD: it,rec,kS,kL,kH=       7    -2  46   1   1 file=diags/exf_zflux_set1.0000000007
 Computing Diagnostic #    228  EXFroff      Counter:       1   Parms: SM      U1      
(PID.TID 0000.0001)  MDS_WRITE_FIELD: it,rec,kS,kL,kH=       7    -3  46   1   1 file=diags/exf_zflux_set1.0000000007
 Computing Diagnostic #    226  EXFempmr     Counter:       1   Parms: SM      U1      
(PID.TID 0000.0001)  MDS_WRITE_FIELD: it,rec,kS,kL,kH=       7    -4  46   1   1 file=diags/exf_zflux_set1.0000000007
 Computing Diagnostic #    212  EXFswdn      Counter:       1   Parms: SM      U1      
(PID.TID 0000.0001)  MDS_WRITE_FIELD: it,rec,kS,kL,kH=       7    -5  46   1   1 file=diags/exf_zflux_set1.0000000007
 Computing Diagnostic #    211  EXFlwdn      Counter:       1   Parms: SM      U1      
(PID.TID 0000.0001)  MDS_WRITE_FIELD: it,rec,kS,kL,kH=       7    -6  46   1   1 file=diags/exf_zflux_set1.0000000007
 Computing Diagnostic #    210  EXFswnet     Counter:       1   Parms: SM      U1      
(PID.TID 0000.0001)  MDS_WRITE_FIELD: it,rec,kS,kL,kH=       7    -7  46   1   1 file=diags/exf_zflux_set1.0000000007
 Computing Diagnostic #    209  EXFlwnet     Counter:       1   Parms: SM      U1      
(PID.TID 0000.0001)  MDS_WRITE_FIELD: it,rec,kS,kL,kH=       7    -8  46   1   1 file=diags/exf_zflux_set1.0000000007
 Computing Diagnostic #    213  EXFqnet      Counter:       1   Parms: SM      U1      
(PID.TID 0000.0001)  MDS_WRITE_FIELD: it,rec,kS,kL,kH=       7    -9  46   1   1 file=diags/exf_zflux_set1.0000000007
 Computing Diagnostic #    221  EXFatemp     Counter:       1   Parms: SM      U1      
(PID.TID 0000.0001)  MDS_WRITE_FIELD: it,rec,kS,kL,kH=       7   -10  46   1   1 file=diags/exf_zflux_set1.0000000007
 Computing Diagnostic #    222  EXFaqh       Counter:       1   Parms: SM      U1      
(PID.TID 0000.0001)  MDS_WRITE_FIELD: it,rec,kS,kL,kH=       7   -11  46   1   1 file=diags/exf_zflux_set1.0000000007
 Computing Diagnostic #    214  EXFtaux      Counter:       1   Parms: UM      U1      
(PID.TID 0000.0001)  MDS_WRITE_FIELD: it,rec,kS,kL,kH=       7   -12  46   1   1 file=diags/exf_zflux_set1.0000000007
 Computing Diagnostic #    215  EXFtauy      Counter:       1   Parms: VM      U1      
(PID.TID 0000.0001)  MDS_WRITE_FIELD: it,rec,kS,kL,kH=       7   -13  46   1   1 file=diags/exf_zflux_set1.0000000007
 Computing Diagnostic #    216  EXFuwind     Counter:       1   Parms: UM      U1      
(PID.TID 0000.0001)  MDS_WRITE_FIELD: it,rec,kS,kL,kH=       7   -14  46   1   1 file=diags/exf_zflux_set1.0000000007
 Computing Diagnostic #    217  EXFvwind     Counter:       1   Parms: VM      U1      
(PID.TID 0000.0001)  MDS_WRITE_FIELD: it,rec,kS,kL,kH=       7   -15  46   1   1 file=diags/exf_zflux_set1.0000000007
 Computing Diagnostic #    227  EXFpress     Counter:       1   Parms: SM      U1      
(PID.TID 0000.0001)  MDS_WRITE_FIELD: it,rec,kS,kL,kH=       7   -16  46   1   1 file=diags/exf_zflux_set1.0000000007
 Computing Diagnostic #    207  EXFhs        Counter:       1   Parms: SM      U1      
(PID.TID 0000.0001)  MDS_WRITE_FIELD: it,rec,kS,kL,kH=       7   -17  46   1   1 file=diags/exf_zflux_set1.0000000007
 Computing Diagnostic #    208  EXFhl        Counter:       1   Parms: SM      U1      
(PID.TID 0000.0001)  MDS_WRITE_FIELD: it,rec,kS,kL,kH=       7   -18  46   1   1 file=diags/exf_zflux_set1.0000000007
(PID.TID 0000.0001)  write diagnostics summary to file: diagnostics_status.0000000007.txt
(PID.TID 0000.0001)  MDS_WRITE_FIELD: it,rec,kS,kL,kH=       7     1  23   1  23 file=pickup_cd.0000000007
(PID.TID 0000.0001)  MDS_WRITE_FIELD: it,rec,kS,kL,kH=       7     2  23   1  23 file=pickup_cd.0000000007
(PID.TID 0000.0001)  MDS_WRITE_FIELD: it,rec,kS,kL,kH=       7     3  23   1  23 file=pickup_cd.0000000007
(PID.TID 0000.0001)  MDS_WRITE_FIELD: it,rec,kS,kL,kH=       7     4  23   1  23 file=pickup_cd.0000000007
(PID.TID 0000.0001)  MDS_WRITE_FIELD: it,rec,kS,kL,kH=       7    93   1   1   1 file=pickup_cd.0000000007
(PID.TID 0000.0001)  MDS_WRITE_FIELD: it,rec,kS,kL,kH=       7    -1   7   1   7 file=pickup_seaice.0000000007
(PID.TID 0000.0001)  MDS_WRITE_FIELD: it,rec,kS,kL,kH=       7    -8   1   1   1 file=pickup_seaice.0000000007
(PID.TID 0000.0001)  MDS_WRITE_FIELD: it,rec,kS,kL,kH=       7    -9   1   1   1 file=pickup_seaice.0000000007
(PID.TID 0000.0001)  MDS_WRITE_FIELD: it,rec,kS,kL,kH=       7   -10   1   1   1 file=pickup_seaice.0000000007
(PID.TID 0000.0001)  MDS_WRITE_FIELD: it,rec,kS,kL,kH=       7   -11   1   1   1 file=pickup_seaice.0000000007
(PID.TID 0000.0001)  MDS_WRITE_FIELD: it,rec,kS,kL,kH=       7   -12   1   1   1 file=pickup_seaice.0000000007
(PID.TID 0000.0001)  MDS_WRITE_FIELD: it,rec,kS,kL,kH=       7   -13   1   1   1 file=pickup_seaice.0000000007
(PID.TID 0000.0001)  MDS_WRITE_FIELD: it,rec,kS,kL,kH=       7    -1  23   1  23 file=pickup.0000000007
(PID.TID 0000.0001)  MDS_WRITE_FIELD: it,rec,kS,kL,kH=       7    -2  23   1  23 file=pickup.0000000007
(PID.TID 0000.0001)  MDS_WRITE_FIELD: it,rec,kS,kL,kH=       7    -3  23   1  23 file=pickup.0000000007
(PID.TID 0000.0001)  MDS_WRITE_FIELD: it,rec,kS,kL,kH=       7    -4  23   1  23 file=pickup.0000000007
(PID.TID 0000.0001)  MDS_WRITE_FIELD: it,rec,kS,kL,kH=       7    -5  23   1  23 file=pickup.0000000007
(PID.TID 0000.0001)  MDS_WRITE_FIELD: it,rec,kS,kL,kH=       7    -6  23   1  23 file=pickup.0000000007
(PID.TID 0000.0001)  MDS_WRITE_FIELD: it,rec,kS,kL,kH=       7  -139   1   1   1 file=pickup.0000000007
(PID.TID 0000.0001)  MDS_WRITE_FIELD: it,rec,kS,kL,kH=       7  -140   1   1   1 file=pickup.0000000007
(PID.TID 0000.0001)  MDS_WRITE_FIELD: it,rec,kS,kL,kH=       7  -141   1   1   1 file=pickup.0000000007
(PID.TID 0000.0001) %CHECKPOINT         7 0000000007
(PID.TID 0000.0001)  MDS_WRITE_FIELD: it,rec,kS,kL,kH=       1     8   1   1   1 file=m_sst_step.0000000001
(PID.TID 0000.0001)  MDS_READ_FIELD: opening global file: xx_atemp.effective.0000000001.data
(PID.TID 0000.0001) EXF_SET_FLD: processing field "climsss",  file: SSS_monthly.labsea1979
(PID.TID 0000.0001) EXF_SET_FLD:   myIter, count0, count1:         7      1      2
(PID.TID 0000.0001) EXF_SET_FLD:   first, changed, fac:   F   F    0.49043715846994540
(PID.TID 0000.0001) EXF_SET_FLD: processing field "uwind",  file: u10m.labsea1979
(PID.TID 0000.0001) EXF_SET_FLD:   myIter, count0, count1:         7      1      2
(PID.TID 0000.0001) EXF_SET_FLD:   first, changed, fac:   F   F    0.49043715846994540
(PID.TID 0000.0001) EXF_SET_FLD: processing field "vwind",  file: v10m.labsea1979
(PID.TID 0000.0001) EXF_SET_FLD:   myIter, count0, count1:         7      1      2
(PID.TID 0000.0001) EXF_SET_FLD:   first, changed, fac:   F   F    0.49043715846994540
(PID.TID 0000.0001) EXF_SET_FLD: processing field "atemp",  file: tair.labsea1979
(PID.TID 0000.0001) EXF_SET_FLD:   myIter, count0, count1:         7      1      2
(PID.TID 0000.0001) EXF_SET_FLD:   first, changed, fac:   F   F    0.49043715846994540
(PID.TID 0000.0001) EXF_SET_FLD: processing field "aqh",  file: qa.labsea1979
(PID.TID 0000.0001) EXF_SET_FLD:   myIter, count0, count1:         7      1      2
(PID.TID 0000.0001) EXF_SET_FLD:   first, changed, fac:   F   F    0.49043715846994540
(PID.TID 0000.0001) EXF_SET_FLD: processing field "precip",  file: prate.labsea1979
(PID.TID 0000.0001) EXF_SET_FLD:   myIter, count0, count1:         7      1      2
(PID.TID 0000.0001) EXF_SET_FLD:   first, changed, fac:   F   F    0.49043715846994540
(PID.TID 0000.0001) EXF_SET_FLD: processing field "swdown",  file: fsh.labsea1979
(PID.TID 0000.0001) EXF_SET_FLD:   myIter, count0, count1:         7      1      2
(PID.TID 0000.0001) EXF_SET_FLD:   first, changed, fac:   F   F    0.49043715846994540
(PID.TID 0000.0001) EXF_SET_FLD: processing field "lwdown",  file: flo.labsea1979
(PID.TID 0000.0001) EXF_SET_FLD:   myIter, count0, count1:         7      1      2
(PID.TID 0000.0001) EXF_SET_FLD:   first, changed, fac:   F   F    0.49043715846994540
(PID.TID 0000.0001) // =======================================================
(PID.TID 0000.0001) // Begin MONITOR EXF statistics
(PID.TID 0000.0001) // =======================================================
(PID.TID 0000.0001) %MON exf_tsnumber                 =                     7
(PID.TID 0000.0001) %MON exf_time_sec                 =   2.5200000000000E+04
(PID.TID 0000.0001) %MON exf_ustress_max              =   5.1974848348126E-02
(PID.TID 0000.0001) %MON exf_ustress_min              =  -9.3557908853774E-02
(PID.TID 0000.0001) %MON exf_ustress_mean             =   1.7329120612702E-02
(PID.TID 0000.0001) %MON exf_ustress_sd               =   2.3320179648557E-02
(PID.TID 0000.0001) %MON exf_ustress_del2             =   7.1270790242100E-04
(PID.TID 0000.0001) %MON exf_vstress_max              =   5.3696728292864E-02
(PID.TID 0000.0001) %MON exf_vstress_min              =  -5.8157744009291E-02
(PID.TID 0000.0001) %MON exf_vstress_mean             =  -5.3922057343806E-03
(PID.TID 0000.0001) %MON exf_vstress_sd               =   1.4281311422160E-02
(PID.TID 0000.0001) %MON exf_vstress_del2             =   5.1825336062953E-04
(PID.TID 0000.0001) %MON exf_hflux_max                =   6.2128399024865E+02
(PID.TID 0000.0001) %MON exf_hflux_min                =  -4.8329712536403E+01
(PID.TID 0000.0001) %MON exf_hflux_mean               =   1.4878283716319E+02
(PID.TID 0000.0001) %MON exf_hflux_sd                 =   1.7837741701130E+02
(PID.TID 0000.0001) %MON exf_hflux_del2               =   5.2705765147464E+00
(PID.TID 0000.0001) %MON exf_sflux_max                =   4.0144672116408E-08
(PID.TID 0000.0001) %MON exf_sflux_min                =  -8.8488401011851E-08
(PID.TID 0000.0001) %MON exf_sflux_mean               =  -2.5898650011404E-08
(PID.TID 0000.0001) %MON exf_sflux_sd                 =   3.0748588956783E-08
(PID.TID 0000.0001) %MON exf_sflux_del2               =   9.5867900332364E-10
(PID.TID 0000.0001) %MON exf_uwind_max                =   6.4679267093784E+00
(PID.TID 0000.0001) %MON exf_uwind_min                =  -6.8374255452651E+00
(PID.TID 0000.0001) %MON exf_uwind_mean               =   2.7705256000140E+00
(PID.TID 0000.0001) %MON exf_uwind_sd                 =   2.9919728561678E+00
(PID.TID 0000.0001) %MON exf_uwind_del2               =   8.0271611876722E-02
(PID.TID 0000.0001) %MON exf_vwind_max                =   3.9242794780783E+00
(PID.TID 0000.0001) %MON exf_vwind_min                =  -6.0133620194399E+00
(PID.TID 0000.0001) %MON exf_vwind_mean               =  -7.5657426961883E-01
(PID.TID 0000.0001) %MON exf_vwind_sd                 =   1.7301024272674E+00
(PID.TID 0000.0001) %MON exf_vwind_del2               =   4.8614042867994E-02
(PID.TID 0000.0001) %MON exf_wspeed_max               =   7.8835498038073E+00
(PID.TID 0000.0001) %MON exf_wspeed_min               =   4.5865235699732E-01
(PID.TID 0000.0001) %MON exf_wspeed_mean              =   4.1988415259832E+00
(PID.TID 0000.0001) %MON exf_wspeed_sd                =   1.6009692521540E+00
(PID.TID 0000.0001) %MON exf_wspeed_del2              =   1.3309485848196E-01
(PID.TID 0000.0001) %MON exf_atemp_max                =   2.8232082742993E+02
(PID.TID 0000.0001) %MON exf_atemp_min                =   2.3688051433042E+02
(PID.TID 0000.0001) %MON exf_atemp_mean               =   2.6436354924392E+02
(PID.TID 0000.0001) %MON exf_atemp_sd                 =   1.1993651656543E+01
(PID.TID 0000.0001) %MON exf_atemp_del2               =   1.6504680183121E-01
(PID.TID 0000.0001) %MON exf_aqh_max                  =   6.3182971576392E-03
(PID.TID 0000.0001) %MON exf_aqh_min                  =   1.6303402368524E-04
(PID.TID 0000.0001) %MON exf_aqh_mean                 =   2.4764404153565E-03
(PID.TID 0000.0001) %MON exf_aqh_sd                   =   1.4257865072101E-03
(PID.TID 0000.0001) %MON exf_aqh_del2                 =   1.7533776408527E-05
(PID.TID 0000.0001) %MON exf_lwflux_max               =   1.8507026487672E+02
(PID.TID 0000.0001) %MON exf_lwflux_min               =   3.4533974459612E+01
(PID.TID 0000.0001) %MON exf_lwflux_mean              =   8.1635236635806E+01
(PID.TID 0000.0001) %MON exf_lwflux_sd                =   4.1713445733197E+01
(PID.TID 0000.0001) %MON exf_lwflux_del2              =   8.9595777999677E-01
(PID.TID 0000.0001) %MON exf_evap_max                 =   4.6464240963988E-08
(PID.TID 0000.0001) %MON exf_evap_min                 =  -5.1368006840269E-09
(PID.TID 0000.0001) %MON exf_evap_mean                =   1.0491354623440E-08
(PID.TID 0000.0001) %MON exf_evap_sd                  =   1.1497503867767E-08
(PID.TID 0000.0001) %MON exf_evap_del2                =   4.5192807410212E-10
(PID.TID 0000.0001) %MON exf_precip_max               =   1.0499733310606E-07
(PID.TID 0000.0001) %MON exf_precip_min               =   2.7265750163496E-10
(PID.TID 0000.0001) %MON exf_precip_mean              =   3.6390004634845E-08
(PID.TID 0000.0001) %MON exf_precip_sd                =   2.0581314966068E-08
(PID.TID 0000.0001) %MON exf_precip_del2              =   8.1112973350766E-10
(PID.TID 0000.0001) %MON exf_swflux_max               =  -8.1207735616653E-02
(PID.TID 0000.0001) %MON exf_swflux_min               =  -6.4105206467675E+01
(PID.TID 0000.0001) %MON exf_swflux_mean              =  -2.6526948534072E+01
(PID.TID 0000.0001) %MON exf_swflux_sd                =   1.9652762825246E+01
(PID.TID 0000.0001) %MON exf_swflux_del2              =   8.9769942849714E-02
(PID.TID 0000.0001) %MON exf_swdown_max               =   7.1228007186306E+01
(PID.TID 0000.0001) %MON exf_swdown_min               =   9.0230817351836E-02
(PID.TID 0000.0001) %MON exf_swdown_mean              =   2.9474387260081E+01
(PID.TID 0000.0001) %MON exf_swdown_sd                =   2.1836403139162E+01
(PID.TID 0000.0001) %MON exf_swdown_del2              =   9.9744380944127E-02
(PID.TID 0000.0001) %MON exf_lwdown_max               =   3.0561793543081E+02
(PID.TID 0000.0001) %MON exf_lwdown_min               =   1.1589194395764E+02
(PID.TID 0000.0001) %MON exf_lwdown_mean              =   2.2583936565568E+02
(PID.TID 0000.0001) %MON exf_lwdown_sd                =   4.6305239399294E+01
(PID.TID 0000.0001) %MON exf_lwdown_del2              =   9.0916236808001E-01
(PID.TID 0000.0001) %MON exf_climsss_max              =   3.5041624116116E+01
(PID.TID 0000.0001) %MON exf_climsss_min              =   3.0671628467372E+01
(PID.TID 0000.0001) %MON exf_climsss_mean             =   3.3462968935345E+01
(PID.TID 0000.0001) %MON exf_climsss_sd               =   1.0314580197633E+00
(PID.TID 0000.0001) %MON exf_climsss_del2             =   2.6969273072472E-02
(PID.TID 0000.0001) // =======================================================
(PID.TID 0000.0001) // End MONITOR EXF statistics
(PID.TID 0000.0001) // =======================================================
DEBUG_STATS_RL: Uice pre  iter (SEAICE_LSR  1)  min= -1.54549194525866E-02
DEBUG_STATS_RL: Uice pre  iter (SEAICE_LSR  1)  max=  2.53524286292195E-01
DEBUG_STATS_RL: Uice pre  iter (SEAICE_LSR  1) mean=  6.68799365320119E-02
DEBUG_STATS_RL: Uice pre  iter (SEAICE_LSR  1) S.D.=  7.54478852962580E-02
DEBUG_STATS_RL: Vice pre  iter (SEAICE_LSR  1)  min= -1.68373183021268E-01
DEBUG_STATS_RL: Vice pre  iter (SEAICE_LSR  1)  max=  8.10859368452303E-02
DEBUG_STATS_RL: Vice pre  iter (SEAICE_LSR  1) mean= -4.94905385200998E-02
DEBUG_STATS_RL: Vice pre  iter (SEAICE_LSR  1) S.D.=  5.89447951203408E-02
DEBUG_STATS_RL: Uice pre  iter (SEAICE_LSR  2)  min= -1.68104910559763E-02
DEBUG_STATS_RL: Uice pre  iter (SEAICE_LSR  2)  max=  2.51381266335640E-01
DEBUG_STATS_RL: Uice pre  iter (SEAICE_LSR  2) mean=  6.26056742417120E-02
DEBUG_STATS_RL: Uice pre  iter (SEAICE_LSR  2) S.D.=  7.23215228186589E-02
DEBUG_STATS_RL: Vice pre  iter (SEAICE_LSR  2)  min= -1.70146515867233E-01
DEBUG_STATS_RL: Vice pre  iter (SEAICE_LSR  2)  max=  7.01571636850258E-02
DEBUG_STATS_RL: Vice pre  iter (SEAICE_LSR  2) mean= -5.12009841743803E-02
DEBUG_STATS_RL: Vice pre  iter (SEAICE_LSR  2) S.D.=  5.84735965012139E-02
DEBUG_STATS_RL:                EtaN (DYNAMICS)  min= -1.21025777222894E-01
DEBUG_STATS_RL:                EtaN (DYNAMICS)  max=  3.30607450971643E-01
DEBUG_STATS_RL:                EtaN (DYNAMICS) mean= -3.95955825447081E-03
DEBUG_STATS_RL:                EtaN (DYNAMICS) S.D.=  6.93964235759688E-02
DEBUG_STATS_RL:                Uvel (DYNAMICS)  min= -3.57601727936033E-02
DEBUG_STATS_RL:                Uvel (DYNAMICS)  max=  1.04775938290593E-01
DEBUG_STATS_RL:                Uvel (DYNAMICS) mean=  4.39725630125182E-03
DEBUG_STATS_RL:                Uvel (DYNAMICS) S.D.=  1.39028540310335E-02
DEBUG_STATS_RL:                Vvel (DYNAMICS)  min= -1.27584762387762E-01
DEBUG_STATS_RL:                Vvel (DYNAMICS)  max=  6.50083276838834E-02
DEBUG_STATS_RL:                Vvel (DYNAMICS) mean= -3.36887217582008E-03
DEBUG_STATS_RL:                Vvel (DYNAMICS) S.D.=  1.85890275650197E-02
DEBUG_STATS_RL:                Wvel (DYNAMICS)  min= -2.67954696014334E-04
DEBUG_STATS_RL:                Wvel (DYNAMICS)  max=  3.29804232734301E-04
DEBUG_STATS_RL:                Wvel (DYNAMICS) mean= -4.85616750767614E-08
DEBUG_STATS_RL:                Wvel (DYNAMICS) S.D.=  2.84164537902804E-05
DEBUG_STATS_RL:               Theta (DYNAMICS)  min= -1.95963016104374E+00
DEBUG_STATS_RL:               Theta (DYNAMICS)  max=  1.32396343409662E+01
DEBUG_STATS_RL:               Theta (DYNAMICS) mean=  2.41506584132490E+00
DEBUG_STATS_RL:               Theta (DYNAMICS) S.D.=  2.57443936967394E+00
DEBUG_STATS_RL:                Salt (DYNAMICS)  min=  2.76338867569799E+01
DEBUG_STATS_RL:                Salt (DYNAMICS)  max=  3.54511617149686E+01
DEBUG_STATS_RL:                Salt (DYNAMICS) mean=  3.39367496241626E+01
DEBUG_STATS_RL:                Salt (DYNAMICS) S.D.=  1.15359229307638E+00
DEBUG_STATS_RL:                  Gu (DYNAMICS)  min= -5.18639383664093E-02
DEBUG_STATS_RL:                  Gu (DYNAMICS)  max=  1.08500044377568E-01
DEBUG_STATS_RL:                  Gu (DYNAMICS) mean=  2.22152146945400E-03
DEBUG_STATS_RL:                  Gu (DYNAMICS) S.D.=  1.62488741545267E-02
DEBUG_STATS_RL:                  Gv (DYNAMICS)  min= -1.40216393355448E-01
DEBUG_STATS_RL:                  Gv (DYNAMICS)  max=  4.07135165171732E-02
DEBUG_STATS_RL:                  Gv (DYNAMICS) mean= -7.84361289825861E-03
DEBUG_STATS_RL:                  Gv (DYNAMICS) S.D.=  1.86090017356288E-02
DEBUG_STATS_RL:               GuNm1 (DYNAMICS)  min= -3.48473911940034E-07
DEBUG_STATS_RL:               GuNm1 (DYNAMICS)  max=  1.90416017948021E-07
DEBUG_STATS_RL:               GuNm1 (DYNAMICS) mean= -3.12306477014106E-09
DEBUG_STATS_RL:               GuNm1 (DYNAMICS) S.D.=  4.09417632400134E-08
DEBUG_STATS_RL:               GvNm1 (DYNAMICS)  min= -2.15359173477236E-07
DEBUG_STATS_RL:               GvNm1 (DYNAMICS)  max=  1.82438063100004E-07
DEBUG_STATS_RL:               GvNm1 (DYNAMICS) mean= -6.53519601921780E-10
DEBUG_STATS_RL:               GvNm1 (DYNAMICS) S.D.=  4.16452354556348E-08
DEBUG_STATS_RL:               GtNm1 (DYNAMICS)  min=  0.00000000000000E+00
DEBUG_STATS_RL:               GtNm1 (DYNAMICS)  max=  0.00000000000000E+00
DEBUG_STATS_RL:               GtNm1 (DYNAMICS) mean=  0.00000000000000E+00
DEBUG_STATS_RL:               GtNm1 (DYNAMICS) S.D.=  0.00000000000000E+00
DEBUG_STATS_RL:               GsNm1 (DYNAMICS)  min=  0.00000000000000E+00
DEBUG_STATS_RL:               GsNm1 (DYNAMICS)  max=  0.00000000000000E+00
DEBUG_STATS_RL:               GsNm1 (DYNAMICS) mean=  0.00000000000000E+00
DEBUG_STATS_RL:               GsNm1 (DYNAMICS) S.D.=  0.00000000000000E+00
DEBUG_STATS_RL:    cg2d_b (SOLVE_FOR_PRESSURE)  min= -7.37985604508148E+03
DEBUG_STATS_RL:    cg2d_b (SOLVE_FOR_PRESSURE)  max=  2.18366607280435E+03
DEBUG_STATS_RL:    cg2d_b (SOLVE_FOR_PRESSURE) mean=  6.18645875268461E-13
DEBUG_STATS_RL:    cg2d_b (SOLVE_FOR_PRESSURE) S.D.=  8.98963545839594E+02
 cg2d: Sum(rhs),rhsMax =   1.34267597040605E-14  1.18778339080378E+00
DEBUG_STATS_RL:    cg2d_x (SOLVE_FOR_PRESSURE)  min= -1.13929441834640E+00
DEBUG_STATS_RL:    cg2d_x (SOLVE_FOR_PRESSURE)  max=  3.20616731162253E+00
DEBUG_STATS_RL:    cg2d_x (SOLVE_FOR_PRESSURE) mean= -4.15672442271453E-02
DEBUG_STATS_RL:    cg2d_x (SOLVE_FOR_PRESSURE) S.D.=  6.51074617232215E-01
(PID.TID 0000.0001)      cg2d_init_res =   6.18161684410740E-02
(PID.TID 0000.0001)      cg2d_iters(min,last) =      -1      43
(PID.TID 0000.0001)      cg2d_last_res =   8.71613878038279E-14
DEBUG_STATS_RL:          Uvel (THERMODYNAMICS)  min= -4.34802359621465E-02
DEBUG_STATS_RL:          Uvel (THERMODYNAMICS)  max=  9.99752242998808E-02
DEBUG_STATS_RL:          Uvel (THERMODYNAMICS) mean=  3.48264152589957E-03
DEBUG_STATS_RL:          Uvel (THERMODYNAMICS) S.D.=  1.35343125506116E-02
DEBUG_STATS_RL:          Vvel (THERMODYNAMICS)  min= -1.33439207289254E-01
DEBUG_STATS_RL:          Vvel (THERMODYNAMICS)  max=  5.60260700766945E-02
DEBUG_STATS_RL:          Vvel (THERMODYNAMICS) mean= -4.02696574872961E-03
DEBUG_STATS_RL:          Vvel (THERMODYNAMICS) S.D.=  1.80273334212797E-02
DEBUG_STATS_RL:          Wvel (THERMODYNAMICS)  min= -2.73348162229354E-04
DEBUG_STATS_RL:          Wvel (THERMODYNAMICS)  max=  3.13596923283671E-04
DEBUG_STATS_RL:          Wvel (THERMODYNAMICS) mean=  4.73709411313520E-08
DEBUG_STATS_RL:          Wvel (THERMODYNAMICS) S.D.=  2.82661454219204E-05
DEBUG_STATS_RL:         Theta (THERMODYNAMICS)  min= -1.95943609422387E+00
DEBUG_STATS_RL:         Theta (THERMODYNAMICS)  max=  1.32225113409295E+01
DEBUG_STATS_RL:         Theta (THERMODYNAMICS) mean=  2.41480286619418E+00
DEBUG_STATS_RL:         Theta (THERMODYNAMICS) S.D.=  2.57398860030337E+00
DEBUG_STATS_RL:          Salt (THERMODYNAMICS)  min=  2.76387468555707E+01
DEBUG_STATS_RL:          Salt (THERMODYNAMICS)  max=  3.54510358217953E+01
DEBUG_STATS_RL:          Salt (THERMODYNAMICS) mean=  3.39367601804946E+01
DEBUG_STATS_RL:          Salt (THERMODYNAMICS) S.D.=  1.15334890349729E+00
DEBUG_STATS_RL:         GtNm1 (THERMODYNAMICS)  min=  0.00000000000000E+00
DEBUG_STATS_RL:         GtNm1 (THERMODYNAMICS)  max=  0.00000000000000E+00
DEBUG_STATS_RL:         GtNm1 (THERMODYNAMICS) mean=  0.00000000000000E+00
DEBUG_STATS_RL:         GtNm1 (THERMODYNAMICS) S.D.=  0.00000000000000E+00
DEBUG_STATS_RL:         GsNm1 (THERMODYNAMICS)  min=  0.00000000000000E+00
DEBUG_STATS_RL:         GsNm1 (THERMODYNAMICS)  max=  0.00000000000000E+00
DEBUG_STATS_RL:         GsNm1 (THERMODYNAMICS) mean=  0.00000000000000E+00
DEBUG_STATS_RL:         GsNm1 (THERMODYNAMICS) S.D.=  0.00000000000000E+00
(PID.TID 0000.0001) // =======================================================
(PID.TID 0000.0001) // Begin MONITOR dynamic field statistics
(PID.TID 0000.0001) // =======================================================
(PID.TID 0000.0001) %MON time_tsnumber                =                     8
(PID.TID 0000.0001) %MON time_secondsf                =   2.8800000000000E+04
(PID.TID 0000.0001) %MON dynstat_eta_max              =   3.2663997225055E-01
(PID.TID 0000.0001) %MON dynstat_eta_min              =  -1.1606976836326E-01
(PID.TID 0000.0001) %MON dynstat_eta_mean             =   1.9648882129515E-16
(PID.TID 0000.0001) %MON dynstat_eta_sd               =   7.3468707513412E-02
(PID.TID 0000.0001) %MON dynstat_eta_del2             =   2.4242765347770E-03
(PID.TID 0000.0001) %MON dynstat_uvel_max             =   9.9975224299881E-02
(PID.TID 0000.0001) %MON dynstat_uvel_min             =  -4.3480235962146E-02
(PID.TID 0000.0001) %MON dynstat_uvel_mean            =   2.1998164318089E-04
(PID.TID 0000.0001) %MON dynstat_uvel_sd              =   8.7184185813281E-03
(PID.TID 0000.0001) %MON dynstat_uvel_del2            =   2.9538414533775E-04
(PID.TID 0000.0001) %MON dynstat_vvel_max             =   5.6026070076695E-02
(PID.TID 0000.0001) %MON dynstat_vvel_min             =  -1.3343920728925E-01
(PID.TID 0000.0001) %MON dynstat_vvel_mean            =   2.6415505420835E-05
(PID.TID 0000.0001) %MON dynstat_vvel_sd              =   7.9806175889033E-03
(PID.TID 0000.0001) %MON dynstat_vvel_del2            =   2.5895385796495E-04
(PID.TID 0000.0001) %MON dynstat_wvel_max             =   3.1359692328367E-04
(PID.TID 0000.0001) %MON dynstat_wvel_min             =  -2.7334816222935E-04
(PID.TID 0000.0001) %MON dynstat_wvel_mean            =   1.5288548264534E-21
(PID.TID 0000.0001) %MON dynstat_wvel_sd              =   5.5814570404810E-05
(PID.TID 0000.0001) %MON dynstat_wvel_del2            =   8.5784964961141E-07
(PID.TID 0000.0001) %MON dynstat_theta_max            =   1.3222511340930E+01
(PID.TID 0000.0001) %MON dynstat_theta_min            =  -1.9594360942239E+00
(PID.TID 0000.0001) %MON dynstat_theta_mean           =   3.0732211988596E+00
(PID.TID 0000.0001) %MON dynstat_theta_sd             =   1.4279377883630E+00
(PID.TID 0000.0001) %MON dynstat_theta_del2           =   9.8146971498051E-03
(PID.TID 0000.0001) %MON dynstat_salt_max             =   3.5451035821795E+01
(PID.TID 0000.0001) %MON dynstat_salt_min             =   2.7638746855571E+01
(PID.TID 0000.0001) %MON dynstat_salt_mean            =   3.4746190597079E+01
(PID.TID 0000.0001) %MON dynstat_salt_sd              =   5.1256824306849E-01
(PID.TID 0000.0001) %MON dynstat_salt_del2            =   3.6474644351642E-03
(PID.TID 0000.0001) %MON dynstat_sst_max              =   5.4984601589022E+00
(PID.TID 0000.0001) %MON dynstat_sst_min              =  -1.9594360942239E+00
(PID.TID 0000.0001) %MON dynstat_sst_mean             =  -1.2389288590455E+00
(PID.TID 0000.0001) %MON dynstat_sst_sd               =   1.4417607421619E+00
(PID.TID 0000.0001) %MON dynstat_sst_del2             =   3.0335413051162E-02
(PID.TID 0000.0001) %MON dynstat_sss_max              =   3.2704931082408E+01
(PID.TID 0000.0001) %MON dynstat_sss_min              =   2.7638746855571E+01
(PID.TID 0000.0001) %MON dynstat_sss_mean             =   3.1227532363670E+01
(PID.TID 0000.0001) %MON dynstat_sss_sd               =   1.1625034314520E+00
(PID.TID 0000.0001) %MON dynstat_sss_del2             =   2.2296357838166E-02
(PID.TID 0000.0001) %MON forcing_qnet_max             =   2.3288365285483E+02
(PID.TID 0000.0001) %MON forcing_qnet_min             =  -4.8329712536403E+01
(PID.TID 0000.0001) %MON forcing_qnet_mean            =   2.9845754066807E+01
(PID.TID 0000.0001) %MON forcing_qnet_sd              =   4.3081201012866E+01
(PID.TID 0000.0001) %MON forcing_qnet_del2            =   2.3040038112621E+00
(PID.TID 0000.0001) %MON forcing_qsw_max              =   0.0000000000000E+00
(PID.TID 0000.0001) %MON forcing_qsw_min              =  -6.4105206467675E+01
(PID.TID 0000.0001) %MON forcing_qsw_mean             =  -1.6529378312524E+01
(PID.TID 0000.0001) %MON forcing_qsw_sd               =   2.3075881780640E+01
(PID.TID 0000.0001) %MON forcing_qsw_del2             =   1.0602492914003E+00
(PID.TID 0000.0001) %MON forcing_empmr_max            =   1.5226563101010E-04
(PID.TID 0000.0001) %MON forcing_empmr_min            =  -4.1065432927198E-04
(PID.TID 0000.0001) %MON forcing_empmr_mean           =  -4.9466066003783E-05
(PID.TID 0000.0001) %MON forcing_empmr_sd             =   1.0264672039379E-04
(PID.TID 0000.0001) %MON forcing_empmr_del2           =   6.1967699872951E-06
(PID.TID 0000.0001) %MON forcing_fu_max               =   8.0497608297099E-02
(PID.TID 0000.0001) %MON forcing_fu_min               =  -5.5590269422927E-03
(PID.TID 0000.0001) %MON forcing_fu_mean              =   2.5263199176645E-02
(PID.TID 0000.0001) %MON forcing_fu_sd                =   2.2769048510865E-02
(PID.TID 0000.0001) %MON forcing_fu_del2              =   1.0752564491696E-03
(PID.TID 0000.0001) %MON forcing_fv_max               =   1.0478245023765E-02
(PID.TID 0000.0001) %MON forcing_fv_min               =  -6.1684162612721E-02
(PID.TID 0000.0001) %MON forcing_fv_mean              =  -8.7300439001377E-03
(PID.TID 0000.0001) %MON forcing_fv_sd                =   1.5338252902360E-02
(PID.TID 0000.0001) %MON forcing_fv_del2              =   6.5912692887910E-04
(PID.TID 0000.0001) %MON trAdv_CFL_u_max              =   2.4669426417421E-03
(PID.TID 0000.0001) %MON trAdv_CFL_v_max              =   2.2137084298216E-03
(PID.TID 0000.0001) %MON trAdv_CFL_w_max              =   7.9774065055788E-03
(PID.TID 0000.0001) %MON advcfl_uvel_max              =   2.4668173980326E-03
(PID.TID 0000.0001) %MON advcfl_vvel_max              =   2.1600857194541E-03
(PID.TID 0000.0001) %MON advcfl_wvel_max              =   6.7784942641195E-03
(PID.TID 0000.0001) %MON advcfl_W_hf_max              =   7.9774065055788E-03
(PID.TID 0000.0001) %MON pe_b_mean                    =   1.7794166123923E-05
(PID.TID 0000.0001) %MON ke_max                       =   8.9742773690721E-03
(PID.TID 0000.0001) %MON ke_mean                      =   5.4829276886736E-05
(PID.TID 0000.0001) %MON ke_vol                       =   5.3036189546438E+15
(PID.TID 0000.0001) %MON vort_r_min                   =  -8.7901306251739E-07
(PID.TID 0000.0001) %MON vort_r_max                   =   4.5042348904808E-07
(PID.TID 0000.0001) %MON vort_a_mean                  =   1.2067277322674E-04
(PID.TID 0000.0001) %MON vort_a_sd                    =   8.8118770058101E-06
(PID.TID 0000.0001) %MON vort_p_mean                  =   1.7734842758352E-04
(PID.TID 0000.0001) %MON vort_p_sd                    =   1.1689259720504E-04
(PID.TID 0000.0001) %MON surfExpan_theta_mean         =  -2.0637735824825E-07
(PID.TID 0000.0001) %MON surfExpan_salt_mean          =   6.0477149215455E-07
(PID.TID 0000.0001) // =======================================================
(PID.TID 0000.0001) // End MONITOR dynamic field statistics
(PID.TID 0000.0001) // =======================================================
(PID.TID 0000.0001) // =======================================================
(PID.TID 0000.0001) // Begin MONITOR SEAICE statistics
(PID.TID 0000.0001) // =======================================================
(PID.TID 0000.0001) %MON seaice_tsnumber              =                     8
(PID.TID 0000.0001) %MON seaice_time_sec              =   2.8800000000000E+04
(PID.TID 0000.0001) %MON seaice_uice_max              =   2.5669525260815E-01
(PID.TID 0000.0001) %MON seaice_uice_min              =  -1.9568720810010E-02
(PID.TID 0000.0001) %MON seaice_uice_mean             =   7.8055824084169E-02
(PID.TID 0000.0001) %MON seaice_uice_sd               =   7.4405885388946E-02
(PID.TID 0000.0001) %MON seaice_uice_del2             =   2.2570497566302E-03
(PID.TID 0000.0001) %MON seaice_vice_max              =   6.1781571986862E-02
(PID.TID 0000.0001) %MON seaice_vice_min              =  -1.7435184163999E-01
(PID.TID 0000.0001) %MON seaice_vice_mean             =  -5.6539944185696E-02
(PID.TID 0000.0001) %MON seaice_vice_sd               =   6.0418114330252E-02
(PID.TID 0000.0001) %MON seaice_vice_del2             =   2.0987461235134E-03
(PID.TID 0000.0001) %MON seaice_area_max              =   1.0000000000000E+00
(PID.TID 0000.0001) %MON seaice_area_min              =   0.0000000000000E+00
(PID.TID 0000.0001) %MON seaice_area_mean             =   6.3903710468363E-01
(PID.TID 0000.0001) %MON seaice_area_sd               =   4.7867976914476E-01
(PID.TID 0000.0001) %MON seaice_area_del2             =   3.0555733183040E-02
(PID.TID 0000.0001) %MON seaice_heff_max              =   5.7070749920978E-01
(PID.TID 0000.0001) %MON seaice_heff_min              =   0.0000000000000E+00
(PID.TID 0000.0001) %MON seaice_heff_mean             =   1.7787914010921E-01
(PID.TID 0000.0001) %MON seaice_heff_sd               =   1.8395718702089E-01
(PID.TID 0000.0001) %MON seaice_heff_del2             =   3.9846631550901E-03
(PID.TID 0000.0001) %MON seaice_hsnow_max             =   1.9986707817951E-01
(PID.TID 0000.0001) %MON seaice_hsnow_min             =   0.0000000000000E+00
(PID.TID 0000.0001) %MON seaice_hsnow_mean            =   6.3037864722351E-02
(PID.TID 0000.0001) %MON seaice_hsnow_sd              =   6.5177451988994E-02
(PID.TID 0000.0001) %MON seaice_hsnow_del2            =   1.4140215727413E-03
(PID.TID 0000.0001) %MON seaice_hsalt_max             =   5.0505991421602E+03
(PID.TID 0000.0001) %MON seaice_hsalt_min             =   0.0000000000000E+00
(PID.TID 0000.0001) %MON seaice_hsalt_mean            =   1.4626991135547E+03
(PID.TID 0000.0001) %MON seaice_hsalt_sd              =   1.5940458443266E+03
(PID.TID 0000.0001) %MON seaice_hsalt_del2            =   3.6072651147713E+01
(PID.TID 0000.0001) // =======================================================
(PID.TID 0000.0001) // End MONITOR SEAICE statistics
(PID.TID 0000.0001) // =======================================================
 Computing Diagnostic #     23  ETAN         Counter:       1   Parms: SM      M1      
(PID.TID 0000.0001)  MDS_WRITE_FIELD: it,rec,kS,kL,kH=       8    -1  46   1   1 file=diags/state_2d_set1.0000000008
 Computing Diagnostic #    294  SIarea       Counter:       1   Parms: SM      M1      
(PID.TID 0000.0001)  MDS_WRITE_FIELD: it,rec,kS,kL,kH=       8    -2  46   1   1 file=diags/state_2d_set1.0000000008
 Computing Diagnostic #    297  SIheff       Counter:       1   Parms: SM      M1      
(PID.TID 0000.0001)  MDS_WRITE_FIELD: it,rec,kS,kL,kH=       8    -3  46   1   1 file=diags/state_2d_set1.0000000008
 Computing Diagnostic #    299  SIhsnow      Counter:       1   Parms: SM      M1      
(PID.TID 0000.0001)  MDS_WRITE_FIELD: it,rec,kS,kL,kH=       8    -4  46   1   1 file=diags/state_2d_set1.0000000008
 Computing Diagnostic #     25  DETADT2      Counter:       1   Parms: SM      M1      
(PID.TID 0000.0001)  MDS_WRITE_FIELD: it,rec,kS,kL,kH=       8    -5  46   1   1 file=diags/state_2d_set1.0000000008
 Computing Diagnostic #     73  PHIBOT       Counter:       1   Parms: SM      M1      
(PID.TID 0000.0001)  MDS_WRITE_FIELD: it,rec,kS,kL,kH=       8    -6  46   1   1 file=diags/state_2d_set1.0000000008
 Computing Diagnostic #     82  sIceLoad     Counter:       1   Parms: SM      U1      
(PID.TID 0000.0001)  MDS_WRITE_FIELD: it,rec,kS,kL,kH=       8    -7  46   1   1 file=diags/state_2d_set1.0000000008
 Computing Diagnostic #     76  MXLDEPTH     Counter:       1   Parms: SM      M1      
(PID.TID 0000.0001)  MDS_WRITE_FIELD: it,rec,kS,kL,kH=       8    -8  46   1   1 file=diags/state_2d_set1.0000000008
 Computing Diagnostic #    325  SIatmFW      Counter:       1   Parms: SM      U1      
(PID.TID 0000.0001)  MDS_WRITE_FIELD: it,rec,kS,kL,kH=       8    -9  46   1   1 file=diags/state_2d_set1.0000000008
 Computing Diagnostic #     85  oceQnet      Counter:       1   Parms: SM      U1      
(PID.TID 0000.0001)  MDS_WRITE_FIELD: it,rec,kS,kL,kH=       8   -10  46   1   1 file=diags/state_2d_set1.0000000008
 Computing Diagnostic #     83  oceFWflx     Counter:       1   Parms: SM      U1      
(PID.TID 0000.0001)  MDS_WRITE_FIELD: it,rec,kS,kL,kH=       8   -11  46   1   1 file=diags/state_2d_set1.0000000008
 Computing Diagnostic #     79  oceTAUX      Counter:       1   Parms: UU      U1      
           Vector  Mate for  oceTAUX      Diagnostic #     80  oceTAUY  exists 
(PID.TID 0000.0001)  MDS_WRITE_FIELD: it,rec,kS,kL,kH=       8   -12  46   1   1 file=diags/state_2d_set1.0000000008
 Computing Diagnostic #     80  oceTAUY      Counter:       1   Parms: VV      U1      
           Vector  Mate for  oceTAUY      Diagnostic #     79  oceTAUX  exists 
(PID.TID 0000.0001)  MDS_WRITE_FIELD: it,rec,kS,kL,kH=       8   -13  46   1   1 file=diags/state_2d_set1.0000000008
 Computing Diagnostic #    311  SIuice       Counter:       1   Parms: UU      M1      
           Vector  Mate for  SIuice       Diagnostic #    312  SIvice   exists 
(PID.TID 0000.0001)  MDS_WRITE_FIELD: it,rec,kS,kL,kH=       8   -14  46   1   1 file=diags/state_2d_set1.0000000008
 Computing Diagnostic #    312  SIvice       Counter:       1   Parms: VV      M1      
           Vector  Mate for  SIvice       Diagnostic #    311  SIuice   exists 
(PID.TID 0000.0001)  MDS_WRITE_FIELD: it,rec,kS,kL,kH=       8   -15  46   1   1 file=diags/state_2d_set1.0000000008
 Computing Diagnostic #     24  ETANSQ       Counter:       1   Parms: SM P    M1      
(PID.TID 0000.0001)  MDS_WRITE_FIELD: it,rec,kS,kL,kH=       8   -16  46   1   1 file=diags/state_2d_set1.0000000008
 Computing Diagnostic #     26  THETA        Counter:       1   Parms: SMR     MR      
(PID.TID 0000.0001)  MDS_WRITE_FIELD: it,rec,kS,kL,kH=       8    -1  46   1  23 file=diags/state_3d_set1.0000000008
 Computing Diagnostic #     27  SALT         Counter:       1   Parms: SMR     MR      
(PID.TID 0000.0001)  MDS_WRITE_FIELD: it,rec,kS,kL,kH=       8    -2  46   1  23 file=diags/state_3d_set1.0000000008
 Computing Diagnostic #     45  UVELMASS     Counter:       1   Parms: UUr     MR      
           Vector  Mate for  UVELMASS     Diagnostic #     46  VVELMASS exists 
(PID.TID 0000.0001)  MDS_WRITE_FIELD: it,rec,kS,kL,kH=       8    -1  46   1  23 file=diags/trsp_3d_set1.0000000008
 Computing Diagnostic #     46  VVELMASS     Counter:       1   Parms: VVr     MR      
           Vector  Mate for  VVELMASS     Diagnostic #     45  UVELMASS exists 
(PID.TID 0000.0001)  MDS_WRITE_FIELD: it,rec,kS,kL,kH=       8    -2  46   1  23 file=diags/trsp_3d_set1.0000000008
 Computing Diagnostic #    224  EXFpreci     Counter:       1   Parms: SM      U1      
(PID.TID 0000.0001)  MDS_WRITE_FIELD: it,rec,kS,kL,kH=       8    -1  46   1   1 file=diags/exf_zflux_set1.0000000008
 Computing Diagnostic #    223  EXFevap      Counter:       1   Parms: SM      U1      
(PID.TID 0000.0001)  MDS_WRITE_FIELD: it,rec,kS,kL,kH=       8    -2  46   1   1 file=diags/exf_zflux_set1.0000000008
 Computing Diagnostic #    228  EXFroff      Counter:       1   Parms: SM      U1      
(PID.TID 0000.0001)  MDS_WRITE_FIELD: it,rec,kS,kL,kH=       8    -3  46   1   1 file=diags/exf_zflux_set1.0000000008
 Computing Diagnostic #    226  EXFempmr     Counter:       1   Parms: SM      U1      
(PID.TID 0000.0001)  MDS_WRITE_FIELD: it,rec,kS,kL,kH=       8    -4  46   1   1 file=diags/exf_zflux_set1.0000000008
 Computing Diagnostic #    212  EXFswdn      Counter:       1   Parms: SM      U1      
(PID.TID 0000.0001)  MDS_WRITE_FIELD: it,rec,kS,kL,kH=       8    -5  46   1   1 file=diags/exf_zflux_set1.0000000008
 Computing Diagnostic #    211  EXFlwdn      Counter:       1   Parms: SM      U1      
(PID.TID 0000.0001)  MDS_WRITE_FIELD: it,rec,kS,kL,kH=       8    -6  46   1   1 file=diags/exf_zflux_set1.0000000008
 Computing Diagnostic #    210  EXFswnet     Counter:       1   Parms: SM      U1      
(PID.TID 0000.0001)  MDS_WRITE_FIELD: it,rec,kS,kL,kH=       8    -7  46   1   1 file=diags/exf_zflux_set1.0000000008
 Computing Diagnostic #    209  EXFlwnet     Counter:       1   Parms: SM      U1      
(PID.TID 0000.0001)  MDS_WRITE_FIELD: it,rec,kS,kL,kH=       8    -8  46   1   1 file=diags/exf_zflux_set1.0000000008
 Computing Diagnostic #    213  EXFqnet      Counter:       1   Parms: SM      U1      
(PID.TID 0000.0001)  MDS_WRITE_FIELD: it,rec,kS,kL,kH=       8    -9  46   1   1 file=diags/exf_zflux_set1.0000000008
 Computing Diagnostic #    221  EXFatemp     Counter:       1   Parms: SM      U1      
(PID.TID 0000.0001)  MDS_WRITE_FIELD: it,rec,kS,kL,kH=       8   -10  46   1   1 file=diags/exf_zflux_set1.0000000008
 Computing Diagnostic #    222  EXFaqh       Counter:       1   Parms: SM      U1      
(PID.TID 0000.0001)  MDS_WRITE_FIELD: it,rec,kS,kL,kH=       8   -11  46   1   1 file=diags/exf_zflux_set1.0000000008
 Computing Diagnostic #    214  EXFtaux      Counter:       1   Parms: UM      U1      
(PID.TID 0000.0001)  MDS_WRITE_FIELD: it,rec,kS,kL,kH=       8   -12  46   1   1 file=diags/exf_zflux_set1.0000000008
 Computing Diagnostic #    215  EXFtauy      Counter:       1   Parms: VM      U1      
(PID.TID 0000.0001)  MDS_WRITE_FIELD: it,rec,kS,kL,kH=       8   -13  46   1   1 file=diags/exf_zflux_set1.0000000008
 Computing Diagnostic #    216  EXFuwind     Counter:       1   Parms: UM      U1      
(PID.TID 0000.0001)  MDS_WRITE_FIELD: it,rec,kS,kL,kH=       8   -14  46   1   1 file=diags/exf_zflux_set1.0000000008
 Computing Diagnostic #    217  EXFvwind     Counter:       1   Parms: VM      U1      
(PID.TID 0000.0001)  MDS_WRITE_FIELD: it,rec,kS,kL,kH=       8   -15  46   1   1 file=diags/exf_zflux_set1.0000000008
 Computing Diagnostic #    227  EXFpress     Counter:       1   Parms: SM      U1      
(PID.TID 0000.0001)  MDS_WRITE_FIELD: it,rec,kS,kL,kH=       8   -16  46   1   1 file=diags/exf_zflux_set1.0000000008
 Computing Diagnostic #    207  EXFhs        Counter:       1   Parms: SM      U1      
(PID.TID 0000.0001)  MDS_WRITE_FIELD: it,rec,kS,kL,kH=       8   -17  46   1   1 file=diags/exf_zflux_set1.0000000008
 Computing Diagnostic #    208  EXFhl        Counter:       1   Parms: SM      U1      
(PID.TID 0000.0001)  MDS_WRITE_FIELD: it,rec,kS,kL,kH=       8   -18  46   1   1 file=diags/exf_zflux_set1.0000000008
(PID.TID 0000.0001)  write diagnostics summary to file: diagnostics_status.0000000008.txt
(PID.TID 0000.0001)  MDS_WRITE_FIELD: it,rec,kS,kL,kH=       8     1  23   1  23 file=pickup_cd.0000000008
(PID.TID 0000.0001)  MDS_WRITE_FIELD: it,rec,kS,kL,kH=       8     2  23   1  23 file=pickup_cd.0000000008
(PID.TID 0000.0001)  MDS_WRITE_FIELD: it,rec,kS,kL,kH=       8     3  23   1  23 file=pickup_cd.0000000008
(PID.TID 0000.0001)  MDS_WRITE_FIELD: it,rec,kS,kL,kH=       8     4  23   1  23 file=pickup_cd.0000000008
(PID.TID 0000.0001)  MDS_WRITE_FIELD: it,rec,kS,kL,kH=       8    93   1   1   1 file=pickup_cd.0000000008
(PID.TID 0000.0001)  MDS_WRITE_FIELD: it,rec,kS,kL,kH=       8    -1   7   1   7 file=pickup_seaice.0000000008
(PID.TID 0000.0001)  MDS_WRITE_FIELD: it,rec,kS,kL,kH=       8    -8   1   1   1 file=pickup_seaice.0000000008
(PID.TID 0000.0001)  MDS_WRITE_FIELD: it,rec,kS,kL,kH=       8    -9   1   1   1 file=pickup_seaice.0000000008
(PID.TID 0000.0001)  MDS_WRITE_FIELD: it,rec,kS,kL,kH=       8   -10   1   1   1 file=pickup_seaice.0000000008
(PID.TID 0000.0001)  MDS_WRITE_FIELD: it,rec,kS,kL,kH=       8   -11   1   1   1 file=pickup_seaice.0000000008
(PID.TID 0000.0001)  MDS_WRITE_FIELD: it,rec,kS,kL,kH=       8   -12   1   1   1 file=pickup_seaice.0000000008
(PID.TID 0000.0001)  MDS_WRITE_FIELD: it,rec,kS,kL,kH=       8   -13   1   1   1 file=pickup_seaice.0000000008
(PID.TID 0000.0001)  MDS_WRITE_FIELD: it,rec,kS,kL,kH=       8    -1  23   1  23 file=pickup.0000000008
(PID.TID 0000.0001)  MDS_WRITE_FIELD: it,rec,kS,kL,kH=       8    -2  23   1  23 file=pickup.0000000008
(PID.TID 0000.0001)  MDS_WRITE_FIELD: it,rec,kS,kL,kH=       8    -3  23   1  23 file=pickup.0000000008
(PID.TID 0000.0001)  MDS_WRITE_FIELD: it,rec,kS,kL,kH=       8    -4  23   1  23 file=pickup.0000000008
(PID.TID 0000.0001)  MDS_WRITE_FIELD: it,rec,kS,kL,kH=       8    -5  23   1  23 file=pickup.0000000008
(PID.TID 0000.0001)  MDS_WRITE_FIELD: it,rec,kS,kL,kH=       8    -6  23   1  23 file=pickup.0000000008
(PID.TID 0000.0001)  MDS_WRITE_FIELD: it,rec,kS,kL,kH=       8  -139   1   1   1 file=pickup.0000000008
(PID.TID 0000.0001)  MDS_WRITE_FIELD: it,rec,kS,kL,kH=       8  -140   1   1   1 file=pickup.0000000008
(PID.TID 0000.0001)  MDS_WRITE_FIELD: it,rec,kS,kL,kH=       8  -141   1   1   1 file=pickup.0000000008
(PID.TID 0000.0001) %CHECKPOINT         8 0000000008
(PID.TID 0000.0001) ADWRITE: tid,vid, irec, length, prec(x2)=    39     1     3      672  8 64 fname=tapelev3_1_the_main_loop_etan
(PID.TID 0000.0001) ADWRITE:  tapeFileCounter =     1
(PID.TID 0000.0001) ADWRITE: tid,vid, irec, length, prec(x2)=    39     2     3      672  8 64 fname=tapelev3_2_the_main_loop_taux0
(PID.TID 0000.0001) ADWRITE:  tapeFileCounter =     2
(PID.TID 0000.0001) ADWRITE: tid,vid, irec, length, prec(x2)=    39     3     3      672  8 64 fname=tapelev3_3_the_main_loop_taux1
(PID.TID 0000.0001) ADWRITE:  tapeFileCounter =     3
(PID.TID 0000.0001) ADWRITE: tid,vid, irec, length, prec(x2)=    39     4     3      672  8 64 fname=tapelev3_4_the_main_loop_tauy0
(PID.TID 0000.0001) ADWRITE:  tapeFileCounter =     4
(PID.TID 0000.0001) ADWRITE: tid,vid, irec, length, prec(x2)=    39     5     3      672  8 64 fname=tapelev3_5_the_main_loop_tauy1
(PID.TID 0000.0001) ADWRITE:  tapeFileCounter =     5
(PID.TID 0000.0001) ADWRITE: tid,vid, irec, length, prec(x2)=    39     6     3      672  8 64 fname=tapelev3_6_the_main_loop_qnet0
(PID.TID 0000.0001) ADWRITE:  tapeFileCounter =     6
(PID.TID 0000.0001) ADWRITE: tid,vid, irec, length, prec(x2)=    39     7     3      672  8 64 fname=tapelev3_7_the_main_loop_qnet1
(PID.TID 0000.0001) ADWRITE:  tapeFileCounter =     7
(PID.TID 0000.0001) ADWRITE: tid,vid, irec, length, prec(x2)=    39     8     3      672  8 64 fname=tapelev3_8_the_main_loop_empmr0
(PID.TID 0000.0001) ADWRITE:  tapeFileCounter =     8
(PID.TID 0000.0001) ADWRITE: tid,vid, irec, length, prec(x2)=    39     9     3      672  8 64 fname=tapelev3_9_the_main_loop_empmr1
(PID.TID 0000.0001) ADWRITE:  tapeFileCounter =     9
(PID.TID 0000.0001) ADWRITE: tid,vid, irec, length, prec(x2)=    39    10     3      672  8 64 fname=tapelev3_10_the_main_loop_sst0
(PID.TID 0000.0001) ADWRITE:  tapeFileCounter =    10
(PID.TID 0000.0001) ADWRITE: tid,vid, irec, length, prec(x2)=    39    11     3      672  8 64 fname=tapelev3_11_the_main_loop_sst1
(PID.TID 0000.0001) ADWRITE:  tapeFileCounter =    11
(PID.TID 0000.0001) ADWRITE: tid,vid, irec, length, prec(x2)=    39    12     3      672  8 64 fname=tapelev3_12_the_main_loop_sss0
(PID.TID 0000.0001) ADWRITE:  tapeFileCounter =    12
(PID.TID 0000.0001) ADWRITE: tid,vid, irec, length, prec(x2)=    39    13     3      672  8 64 fname=tapelev3_13_the_main_loop_sss1
(PID.TID 0000.0001) ADWRITE:  tapeFileCounter =    13
(PID.TID 0000.0001) ADWRITE: tid,vid, irec, length, prec(x2)=    39    14     3      672  8 64 fname=tapelev3_14_the_main_loop_saltflux0
(PID.TID 0000.0001) ADWRITE:  tapeFileCounter =    14
(PID.TID 0000.0001) ADWRITE: tid,vid, irec, length, prec(x2)=    39    15     3      672  8 64 fname=tapelev3_15_the_main_loop_saltflux1
(PID.TID 0000.0001) ADWRITE:  tapeFileCounter =    15
(PID.TID 0000.0001) ADWRITE: tid,vid, irec, length, prec(x2)=    39    16     3      672  8 64 fname=tapelev3_16_the_main_loop_qsw0
(PID.TID 0000.0001) ADWRITE:  tapeFileCounter =    16
(PID.TID 0000.0001) ADWRITE: tid,vid, irec, length, prec(x2)=    39    17     3      672  8 64 fname=tapelev3_17_the_main_loop_qsw1
(PID.TID 0000.0001) ADWRITE:  tapeFileCounter =    17
(PID.TID 0000.0001) ADWRITE: tid,vid, irec, length, prec(x2)=    39    18     3      672  8 64 fname=tapelev3_18_the_main_loop_pload0
(PID.TID 0000.0001) ADWRITE:  tapeFileCounter =    18
(PID.TID 0000.0001) ADWRITE: tid,vid, irec, length, prec(x2)=    39    19     3      672  8 64 fname=tapelev3_19_the_main_loop_pload1
(PID.TID 0000.0001) ADWRITE:  tapeFileCounter =    19
(PID.TID 0000.0001) ADWRITE: tid,vid, irec, length, prec(x2)=    39    20     3      672  8 64 fname=tapelev3_20_the_main_loop_etah
(PID.TID 0000.0001) ADWRITE:  tapeFileCounter =    20
(PID.TID 0000.0001) ADWRITE: tid,vid, irec, length, prec(x2)=    39    21     3      672  8 64 fname=tapelev3_21_the_main_loop_detahdt
(PID.TID 0000.0001) ADWRITE:  tapeFileCounter =    21
(PID.TID 0000.0001) ADWRITE: tid,vid, irec, length, prec(x2)=    39    22     3      672  8 64 fname=tapelev3_22_the_main_loop_pmepr
(PID.TID 0000.0001) ADWRITE:  tapeFileCounter =    22
(PID.TID 0000.0001) ADWRITE: tid,vid, irec, length, prec(x2)=    39    23     3    15456  8 64 fname=tapelev3_23_the_main_loop_gtnm1
(PID.TID 0000.0001) ADWRITE:  tapeFileCounter =    23
(PID.TID 0000.0001) ADWRITE:  tapeFileCounter =    24
(PID.TID 0000.0001) ADWRITE:  tapeFileCounter =    25
(PID.TID 0000.0001) ADWRITE:  tapeFileCounter =    26
(PID.TID 0000.0001) ADWRITE:  tapeFileCounter =    27
(PID.TID 0000.0001) ADWRITE:  tapeFileCounter =    28
(PID.TID 0000.0001) ADWRITE:  tapeFileCounter =    29
(PID.TID 0000.0001) ADWRITE:  tapeFileCounter =    30
(PID.TID 0000.0001) ADWRITE:  tapeFileCounter =    31
(PID.TID 0000.0001) ADWRITE:  tapeFileCounter =    32
(PID.TID 0000.0001) ADWRITE:  tapeFileCounter =    33
(PID.TID 0000.0001) ADWRITE:  tapeFileCounter =    34
(PID.TID 0000.0001) ADWRITE:  tapeFileCounter =    35
(PID.TID 0000.0001) ADWRITE:  tapeFileCounter =    36
(PID.TID 0000.0001) ADWRITE:  tapeFileCounter =    37
(PID.TID 0000.0001) ADWRITE:  tapeFileCounter =    38
(PID.TID 0000.0001) ADWRITE:  tapeFileCounter =    39
(PID.TID 0000.0001) ADWRITE:  tapeFileCounter =    40
(PID.TID 0000.0001) ADWRITE:  tapeFileCounter =    41
(PID.TID 0000.0001) ADWRITE:  tapeFileCounter =    42
(PID.TID 0000.0001) ADWRITE:  tapeFileCounter =    43
(PID.TID 0000.0001) ADWRITE:  tapeFileCounter =    44
(PID.TID 0000.0001) ADWRITE:  tapeFileCounter =    45
(PID.TID 0000.0001) ADWRITE: tid,vid, irec, length, prec(x2)=    39    24     3    15456  8 64 fname=tapelev3_24_the_main_loop_gsnm1
(PID.TID 0000.0001) ADWRITE:  tapeFileCounter =    46
(PID.TID 0000.0001) ADWRITE:  tapeFileCounter =    47
(PID.TID 0000.0001) ADWRITE:  tapeFileCounter =    48
(PID.TID 0000.0001) ADWRITE:  tapeFileCounter =    49
(PID.TID 0000.0001) ADWRITE:  tapeFileCounter =    50
(PID.TID 0000.0001) ADWRITE:  tapeFileCounter =    51
(PID.TID 0000.0001) ADWRITE:  tapeFileCounter =    52
(PID.TID 0000.0001) ADWRITE:  tapeFileCounter =    53
(PID.TID 0000.0001) ADWRITE:  tapeFileCounter =    54
(PID.TID 0000.0001) ADWRITE:  tapeFileCounter =    55
(PID.TID 0000.0001) ADWRITE:  tapeFileCounter =    56
(PID.TID 0000.0001) ADWRITE:  tapeFileCounter =    57
(PID.TID 0000.0001) ADWRITE:  tapeFileCounter =    58
(PID.TID 0000.0001) ADWRITE:  tapeFileCounter =    59
(PID.TID 0000.0001) ADWRITE:  tapeFileCounter =    60
(PID.TID 0000.0001) ADWRITE:  tapeFileCounter =    61
(PID.TID 0000.0001) ADWRITE:  tapeFileCounter =    62
(PID.TID 0000.0001) ADWRITE:  tapeFileCounter =    63
(PID.TID 0000.0001) ADWRITE:  tapeFileCounter =    64
(PID.TID 0000.0001) ADWRITE:  tapeFileCounter =    65
(PID.TID 0000.0001) ADWRITE:  tapeFileCounter =    66
(PID.TID 0000.0001) ADWRITE:  tapeFileCounter =    67
(PID.TID 0000.0001) ADWRITE:  tapeFileCounter =    68
(PID.TID 0000.0001) ADWRITE: tid,vid, irec, length, prec(x2)=    39    25     3    15456  8 64 fname=tapelev3_25_the_main_loop_gunm1
(PID.TID 0000.0001) ADWRITE:  tapeFileCounter =    69
(PID.TID 0000.0001) ADWRITE:  tapeFileCounter =    70
(PID.TID 0000.0001) ADWRITE:  tapeFileCounter =    71
(PID.TID 0000.0001) ADWRITE:  tapeFileCounter =    72
(PID.TID 0000.0001) ADWRITE:  tapeFileCounter =    73
(PID.TID 0000.0001) ADWRITE:  tapeFileCounter =    74
(PID.TID 0000.0001) ADWRITE:  tapeFileCounter =    75
(PID.TID 0000.0001) ADWRITE:  tapeFileCounter =    76
(PID.TID 0000.0001) ADWRITE:  tapeFileCounter =    77
(PID.TID 0000.0001) ADWRITE:  tapeFileCounter =    78
(PID.TID 0000.0001) ADWRITE:  tapeFileCounter =    79
(PID.TID 0000.0001) ADWRITE:  tapeFileCounter =    80
(PID.TID 0000.0001) ADWRITE:  tapeFileCounter =    81
(PID.TID 0000.0001) ADWRITE:  tapeFileCounter =    82
(PID.TID 0000.0001) ADWRITE:  tapeFileCounter =    83
(PID.TID 0000.0001) ADWRITE:  tapeFileCounter =    84
(PID.TID 0000.0001) ADWRITE:  tapeFileCounter =    85
(PID.TID 0000.0001) ADWRITE:  tapeFileCounter =    86
(PID.TID 0000.0001) ADWRITE:  tapeFileCounter =    87
(PID.TID 0000.0001) ADWRITE:  tapeFileCounter =    88
(PID.TID 0000.0001) ADWRITE:  tapeFileCounter =    89
(PID.TID 0000.0001) ADWRITE:  tapeFileCounter =    90
(PID.TID 0000.0001) ADWRITE:  tapeFileCounter =    91
(PID.TID 0000.0001) ADWRITE: tid,vid, irec, length, prec(x2)=    39    26     3    15456  8 64 fname=tapelev3_26_the_main_loop_gvnm1
(PID.TID 0000.0001) ADWRITE:  tapeFileCounter =    92
(PID.TID 0000.0001) ADWRITE:  tapeFileCounter =    93
(PID.TID 0000.0001) ADWRITE:  tapeFileCounter =    94
(PID.TID 0000.0001) ADWRITE:  tapeFileCounter =    95
(PID.TID 0000.0001) ADWRITE:  tapeFileCounter =    96
(PID.TID 0000.0001) ADWRITE:  tapeFileCounter =    97
(PID.TID 0000.0001) ADWRITE:  tapeFileCounter =    98
(PID.TID 0000.0001) ADWRITE:  tapeFileCounter =    99
(PID.TID 0000.0001) ADWRITE:  tapeFileCounter =   100
(PID.TID 0000.0001) ADWRITE:  tapeFileCounter =   101
(PID.TID 0000.0001) ADWRITE:  tapeFileCounter =   102
(PID.TID 0000.0001) ADWRITE:  tapeFileCounter =   103
(PID.TID 0000.0001) ADWRITE:  tapeFileCounter =   104
(PID.TID 0000.0001) ADWRITE:  tapeFileCounter =   105
(PID.TID 0000.0001) ADWRITE:  tapeFileCounter =   106
(PID.TID 0000.0001) ADWRITE:  tapeFileCounter =   107
(PID.TID 0000.0001) ADWRITE:  tapeFileCounter =   108
(PID.TID 0000.0001) ADWRITE:  tapeFileCounter =   109
(PID.TID 0000.0001) ADWRITE:  tapeFileCounter =   110
(PID.TID 0000.0001) ADWRITE:  tapeFileCounter =   111
(PID.TID 0000.0001) ADWRITE:  tapeFileCounter =   112
(PID.TID 0000.0001) ADWRITE:  tapeFileCounter =   113
(PID.TID 0000.0001) ADWRITE:  tapeFileCounter =   114
(PID.TID 0000.0001) ADWRITE: tid,vid, irec, length, prec(x2)=    39    27     3    15456  8 64 fname=tapelev3_27_the_main_loop_theta
(PID.TID 0000.0001) ADWRITE:  tapeFileCounter =   115
(PID.TID 0000.0001) ADWRITE:  tapeFileCounter =   116
(PID.TID 0000.0001) ADWRITE:  tapeFileCounter =   117
(PID.TID 0000.0001) ADWRITE:  tapeFileCounter =   118
(PID.TID 0000.0001) ADWRITE:  tapeFileCounter =   119
(PID.TID 0000.0001) ADWRITE:  tapeFileCounter =   120
(PID.TID 0000.0001) ADWRITE:  tapeFileCounter =   121
(PID.TID 0000.0001) ADWRITE:  tapeFileCounter =   122
(PID.TID 0000.0001) ADWRITE:  tapeFileCounter =   123
(PID.TID 0000.0001) ADWRITE:  tapeFileCounter =   124
(PID.TID 0000.0001) ADWRITE:  tapeFileCounter =   125
(PID.TID 0000.0001) ADWRITE:  tapeFileCounter =   126
(PID.TID 0000.0001) ADWRITE:  tapeFileCounter =   127
(PID.TID 0000.0001) ADWRITE:  tapeFileCounter =   128
(PID.TID 0000.0001) ADWRITE:  tapeFileCounter =   129
(PID.TID 0000.0001) ADWRITE:  tapeFileCounter =   130
(PID.TID 0000.0001) ADWRITE:  tapeFileCounter =   131
(PID.TID 0000.0001) ADWRITE:  tapeFileCounter =   132
(PID.TID 0000.0001) ADWRITE:  tapeFileCounter =   133
(PID.TID 0000.0001) ADWRITE:  tapeFileCounter =   134
(PID.TID 0000.0001) ADWRITE:  tapeFileCounter =   135
(PID.TID 0000.0001) ADWRITE:  tapeFileCounter =   136
(PID.TID 0000.0001) ADWRITE:  tapeFileCounter =   137
(PID.TID 0000.0001) ADWRITE: tid,vid, irec, length, prec(x2)=    39    28     3    15456  8 64 fname=tapelev3_28_the_main_loop_salt
(PID.TID 0000.0001) ADWRITE:  tapeFileCounter =   138
(PID.TID 0000.0001) ADWRITE:  tapeFileCounter =   139
(PID.TID 0000.0001) ADWRITE:  tapeFileCounter =   140
(PID.TID 0000.0001) ADWRITE:  tapeFileCounter =   141
(PID.TID 0000.0001) ADWRITE:  tapeFileCounter =   142
(PID.TID 0000.0001) ADWRITE:  tapeFileCounter =   143
(PID.TID 0000.0001) ADWRITE:  tapeFileCounter =   144
(PID.TID 0000.0001) ADWRITE:  tapeFileCounter =   145
(PID.TID 0000.0001) ADWRITE:  tapeFileCounter =   146
(PID.TID 0000.0001) ADWRITE:  tapeFileCounter =   147
(PID.TID 0000.0001) ADWRITE:  tapeFileCounter =   148
(PID.TID 0000.0001) ADWRITE:  tapeFileCounter =   149
(PID.TID 0000.0001) ADWRITE:  tapeFileCounter =   150
(PID.TID 0000.0001) ADWRITE:  tapeFileCounter =   151
(PID.TID 0000.0001) ADWRITE:  tapeFileCounter =   152
(PID.TID 0000.0001) ADWRITE:  tapeFileCounter =   153
(PID.TID 0000.0001) ADWRITE:  tapeFileCounter =   154
(PID.TID 0000.0001) ADWRITE:  tapeFileCounter =   155
(PID.TID 0000.0001) ADWRITE:  tapeFileCounter =   156
(PID.TID 0000.0001) ADWRITE:  tapeFileCounter =   157
(PID.TID 0000.0001) ADWRITE:  tapeFileCounter =   158
(PID.TID 0000.0001) ADWRITE:  tapeFileCounter =   159
(PID.TID 0000.0001) ADWRITE:  tapeFileCounter =   160
(PID.TID 0000.0001) ADWRITE: tid,vid, irec, length, prec(x2)=    39    29     3    15456  8 64 fname=tapelev3_29_the_main_loop_uvel
(PID.TID 0000.0001) ADWRITE:  tapeFileCounter =   161
(PID.TID 0000.0001) ADWRITE:  tapeFileCounter =   162
(PID.TID 0000.0001) ADWRITE:  tapeFileCounter =   163
(PID.TID 0000.0001) ADWRITE:  tapeFileCounter =   164
(PID.TID 0000.0001) ADWRITE:  tapeFileCounter =   165
(PID.TID 0000.0001) ADWRITE:  tapeFileCounter =   166
(PID.TID 0000.0001) ADWRITE:  tapeFileCounter =   167
(PID.TID 0000.0001) ADWRITE:  tapeFileCounter =   168
(PID.TID 0000.0001) ADWRITE:  tapeFileCounter =   169
(PID.TID 0000.0001) ADWRITE:  tapeFileCounter =   170
(PID.TID 0000.0001) ADWRITE:  tapeFileCounter =   171
(PID.TID 0000.0001) ADWRITE:  tapeFileCounter =   172
(PID.TID 0000.0001) ADWRITE:  tapeFileCounter =   173
(PID.TID 0000.0001) ADWRITE:  tapeFileCounter =   174
(PID.TID 0000.0001) ADWRITE:  tapeFileCounter =   175
(PID.TID 0000.0001) ADWRITE:  tapeFileCounter =   176
(PID.TID 0000.0001) ADWRITE:  tapeFileCounter =   177
(PID.TID 0000.0001) ADWRITE:  tapeFileCounter =   178
(PID.TID 0000.0001) ADWRITE:  tapeFileCounter =   179
(PID.TID 0000.0001) ADWRITE:  tapeFileCounter =   180
(PID.TID 0000.0001) ADWRITE:  tapeFileCounter =   181
(PID.TID 0000.0001) ADWRITE:  tapeFileCounter =   182
(PID.TID 0000.0001) ADWRITE:  tapeFileCounter =   183
(PID.TID 0000.0001) ADWRITE: tid,vid, irec, length, prec(x2)=    39    30     3    15456  8 64 fname=tapelev3_30_the_main_loop_vvel
(PID.TID 0000.0001) ADWRITE:  tapeFileCounter =   184
(PID.TID 0000.0001) ADWRITE:  tapeFileCounter =   185
(PID.TID 0000.0001) ADWRITE:  tapeFileCounter =   186
(PID.TID 0000.0001) ADWRITE:  tapeFileCounter =   187
(PID.TID 0000.0001) ADWRITE:  tapeFileCounter =   188
(PID.TID 0000.0001) ADWRITE:  tapeFileCounter =   189
(PID.TID 0000.0001) ADWRITE:  tapeFileCounter =   190
(PID.TID 0000.0001) ADWRITE:  tapeFileCounter =   191
(PID.TID 0000.0001) ADWRITE:  tapeFileCounter =   192
(PID.TID 0000.0001) ADWRITE:  tapeFileCounter =   193
(PID.TID 0000.0001) ADWRITE:  tapeFileCounter =   194
(PID.TID 0000.0001) ADWRITE:  tapeFileCounter =   195
(PID.TID 0000.0001) ADWRITE:  tapeFileCounter =   196
(PID.TID 0000.0001) ADWRITE:  tapeFileCounter =   197
(PID.TID 0000.0001) ADWRITE:  tapeFileCounter =   198
(PID.TID 0000.0001) ADWRITE:  tapeFileCounter =   199
(PID.TID 0000.0001) ADWRITE:  tapeFileCounter =   200
(PID.TID 0000.0001) ADWRITE:  tapeFileCounter =   201
(PID.TID 0000.0001) ADWRITE:  tapeFileCounter =   202
(PID.TID 0000.0001) ADWRITE:  tapeFileCounter =   203
(PID.TID 0000.0001) ADWRITE:  tapeFileCounter =   204
(PID.TID 0000.0001) ADWRITE:  tapeFileCounter =   205
(PID.TID 0000.0001) ADWRITE:  tapeFileCounter =   206
(PID.TID 0000.0001) ADWRITE: tid,vid, irec, length, prec(x2)=    39    31     3    15456  8 64 fname=tapelev3_31_the_main_loop_wvel
(PID.TID 0000.0001) ADWRITE:  tapeFileCounter =   207
(PID.TID 0000.0001) ADWRITE:  tapeFileCounter =   208
(PID.TID 0000.0001) ADWRITE:  tapeFileCounter =   209
(PID.TID 0000.0001) ADWRITE:  tapeFileCounter =   210
(PID.TID 0000.0001) ADWRITE:  tapeFileCounter =   211
(PID.TID 0000.0001) ADWRITE:  tapeFileCounter =   212
(PID.TID 0000.0001) ADWRITE:  tapeFileCounter =   213
(PID.TID 0000.0001) ADWRITE:  tapeFileCounter =   214
(PID.TID 0000.0001) ADWRITE:  tapeFileCounter =   215
(PID.TID 0000.0001) ADWRITE:  tapeFileCounter =   216
(PID.TID 0000.0001) ADWRITE:  tapeFileCounter =   217
(PID.TID 0000.0001) ADWRITE:  tapeFileCounter =   218
(PID.TID 0000.0001) ADWRITE:  tapeFileCounter =   219
(PID.TID 0000.0001) ADWRITE:  tapeFileCounter =   220
(PID.TID 0000.0001) ADWRITE:  tapeFileCounter =   221
(PID.TID 0000.0001) ADWRITE:  tapeFileCounter =   222
(PID.TID 0000.0001) ADWRITE:  tapeFileCounter =   223
(PID.TID 0000.0001) ADWRITE:  tapeFileCounter =   224
(PID.TID 0000.0001) ADWRITE:  tapeFileCounter =   225
(PID.TID 0000.0001) ADWRITE:  tapeFileCounter =   226
(PID.TID 0000.0001) ADWRITE:  tapeFileCounter =   227
(PID.TID 0000.0001) ADWRITE:  tapeFileCounter =   228
(PID.TID 0000.0001) ADWRITE:  tapeFileCounter =   229
(PID.TID 0000.0001) ADWRITE: tid,vid, irec, length, prec(x2)=    39    32     3    15456  8 64 fname=tapelev3_32_the_main_loop_totphihyd
(PID.TID 0000.0001) ADWRITE:  tapeFileCounter =   230
(PID.TID 0000.0001) ADWRITE:  tapeFileCounter =   231
(PID.TID 0000.0001) ADWRITE:  tapeFileCounter =   232
(PID.TID 0000.0001) ADWRITE:  tapeFileCounter =   233
(PID.TID 0000.0001) ADWRITE:  tapeFileCounter =   234
(PID.TID 0000.0001) ADWRITE:  tapeFileCounter =   235
(PID.TID 0000.0001) ADWRITE:  tapeFileCounter =   236
(PID.TID 0000.0001) ADWRITE:  tapeFileCounter =   237
(PID.TID 0000.0001) ADWRITE:  tapeFileCounter =   238
(PID.TID 0000.0001) ADWRITE:  tapeFileCounter =   239
(PID.TID 0000.0001) ADWRITE:  tapeFileCounter =   240
(PID.TID 0000.0001) ADWRITE:  tapeFileCounter =   241
(PID.TID 0000.0001) ADWRITE:  tapeFileCounter =   242
(PID.TID 0000.0001) ADWRITE:  tapeFileCounter =   243
(PID.TID 0000.0001) ADWRITE:  tapeFileCounter =   244
(PID.TID 0000.0001) ADWRITE:  tapeFileCounter =   245
(PID.TID 0000.0001) ADWRITE:  tapeFileCounter =   246
(PID.TID 0000.0001) ADWRITE:  tapeFileCounter =   247
(PID.TID 0000.0001) ADWRITE:  tapeFileCounter =   248
(PID.TID 0000.0001) ADWRITE:  tapeFileCounter =   249
(PID.TID 0000.0001) ADWRITE:  tapeFileCounter =   250
(PID.TID 0000.0001) ADWRITE:  tapeFileCounter =   251
(PID.TID 0000.0001) ADWRITE:  tapeFileCounter =   252
(PID.TID 0000.0001) ADWRITE: tid,vid, irec, length, prec(x2)=    39    35     3    15456  8 64 fname=tapelev3_35_the_main_loop_uveld
(PID.TID 0000.0001) ADWRITE:  tapeFileCounter =   253
(PID.TID 0000.0001) ADWRITE:  tapeFileCounter =   254
(PID.TID 0000.0001) ADWRITE:  tapeFileCounter =   255
(PID.TID 0000.0001) ADWRITE:  tapeFileCounter =   256
(PID.TID 0000.0001) ADWRITE:  tapeFileCounter =   257
(PID.TID 0000.0001) ADWRITE:  tapeFileCounter =   258
(PID.TID 0000.0001) ADWRITE:  tapeFileCounter =   259
(PID.TID 0000.0001) ADWRITE:  tapeFileCounter =   260
(PID.TID 0000.0001) ADWRITE:  tapeFileCounter =   261
(PID.TID 0000.0001) ADWRITE:  tapeFileCounter =   262
(PID.TID 0000.0001) ADWRITE:  tapeFileCounter =   263
(PID.TID 0000.0001) ADWRITE:  tapeFileCounter =   264
(PID.TID 0000.0001) ADWRITE:  tapeFileCounter =   265
(PID.TID 0000.0001) ADWRITE:  tapeFileCounter =   266
(PID.TID 0000.0001) ADWRITE:  tapeFileCounter =   267
(PID.TID 0000.0001) ADWRITE:  tapeFileCounter =   268
(PID.TID 0000.0001) ADWRITE:  tapeFileCounter =   269
(PID.TID 0000.0001) ADWRITE:  tapeFileCounter =   270
(PID.TID 0000.0001) ADWRITE:  tapeFileCounter =   271
(PID.TID 0000.0001) ADWRITE:  tapeFileCounter =   272
(PID.TID 0000.0001) ADWRITE:  tapeFileCounter =   273
(PID.TID 0000.0001) ADWRITE:  tapeFileCounter =   274
(PID.TID 0000.0001) ADWRITE:  tapeFileCounter =   275
(PID.TID 0000.0001) ADWRITE: tid,vid, irec, length, prec(x2)=    39    36     3    15456  8 64 fname=tapelev3_36_the_main_loop_vveld
(PID.TID 0000.0001) ADWRITE:  tapeFileCounter =   276
(PID.TID 0000.0001) ADWRITE:  tapeFileCounter =   277
(PID.TID 0000.0001) ADWRITE:  tapeFileCounter =   278
(PID.TID 0000.0001) ADWRITE:  tapeFileCounter =   279
(PID.TID 0000.0001) ADWRITE:  tapeFileCounter =   280
(PID.TID 0000.0001) ADWRITE:  tapeFileCounter =   281
(PID.TID 0000.0001) ADWRITE:  tapeFileCounter =   282
(PID.TID 0000.0001) ADWRITE:  tapeFileCounter =   283
(PID.TID 0000.0001) ADWRITE:  tapeFileCounter =   284
(PID.TID 0000.0001) ADWRITE:  tapeFileCounter =   285
(PID.TID 0000.0001) ADWRITE:  tapeFileCounter =   286
(PID.TID 0000.0001) ADWRITE:  tapeFileCounter =   287
(PID.TID 0000.0001) ADWRITE:  tapeFileCounter =   288
(PID.TID 0000.0001) ADWRITE:  tapeFileCounter =   289
(PID.TID 0000.0001) ADWRITE:  tapeFileCounter =   290
(PID.TID 0000.0001) ADWRITE:  tapeFileCounter =   291
(PID.TID 0000.0001) ADWRITE:  tapeFileCounter =   292
(PID.TID 0000.0001) ADWRITE:  tapeFileCounter =   293
(PID.TID 0000.0001) ADWRITE:  tapeFileCounter =   294
(PID.TID 0000.0001) ADWRITE:  tapeFileCounter =   295
(PID.TID 0000.0001) ADWRITE:  tapeFileCounter =   296
(PID.TID 0000.0001) ADWRITE:  tapeFileCounter =   297
(PID.TID 0000.0001) ADWRITE:  tapeFileCounter =   298
(PID.TID 0000.0001) ADWRITE: tid,vid, irec, length, prec(x2)=    39    37     3      672  8 64 fname=tapelev3_37_the_main_loop_etanm1
(PID.TID 0000.0001) ADWRITE:  tapeFileCounter =   299
(PID.TID 0000.0001) ADWRITE: tid,vid, irec, length, prec(x2)=    39    38     3    15456  8 64 fname=tapelev3_38_the_main_loop_unm1
(PID.TID 0000.0001) ADWRITE:  tapeFileCounter =   300
(PID.TID 0000.0001) ADWRITE:  tapeFileCounter =   301
(PID.TID 0000.0001) ADWRITE:  tapeFileCounter =   302
(PID.TID 0000.0001) ADWRITE:  tapeFileCounter =   303
(PID.TID 0000.0001) ADWRITE:  tapeFileCounter =   304
(PID.TID 0000.0001) ADWRITE:  tapeFileCounter =   305
(PID.TID 0000.0001) ADWRITE:  tapeFileCounter =   306
(PID.TID 0000.0001) ADWRITE:  tapeFileCounter =   307
(PID.TID 0000.0001) ADWRITE:  tapeFileCounter =   308
(PID.TID 0000.0001) ADWRITE:  tapeFileCounter =   309
(PID.TID 0000.0001) ADWRITE:  tapeFileCounter =   310
(PID.TID 0000.0001) ADWRITE:  tapeFileCounter =   311
(PID.TID 0000.0001) ADWRITE:  tapeFileCounter =   312
(PID.TID 0000.0001) ADWRITE:  tapeFileCounter =   313
(PID.TID 0000.0001) ADWRITE:  tapeFileCounter =   314
(PID.TID 0000.0001) ADWRITE:  tapeFileCounter =   315
(PID.TID 0000.0001) ADWRITE:  tapeFileCounter =   316
(PID.TID 0000.0001) ADWRITE:  tapeFileCounter =   317
(PID.TID 0000.0001) ADWRITE:  tapeFileCounter =   318
(PID.TID 0000.0001) ADWRITE:  tapeFileCounter =   319
(PID.TID 0000.0001) ADWRITE:  tapeFileCounter =   320
(PID.TID 0000.0001) ADWRITE:  tapeFileCounter =   321
(PID.TID 0000.0001) ADWRITE:  tapeFileCounter =   322
(PID.TID 0000.0001) ADWRITE: tid,vid, irec, length, prec(x2)=    39    39     3    15456  8 64 fname=tapelev3_39_the_main_loop_vnm1
(PID.TID 0000.0001) ADWRITE:  tapeFileCounter =   323
(PID.TID 0000.0001) ADWRITE:  tapeFileCounter =   324
(PID.TID 0000.0001) ADWRITE:  tapeFileCounter =   325
(PID.TID 0000.0001) ADWRITE:  tapeFileCounter =   326
(PID.TID 0000.0001) ADWRITE:  tapeFileCounter =   327
(PID.TID 0000.0001) ADWRITE:  tapeFileCounter =   328
(PID.TID 0000.0001) ADWRITE:  tapeFileCounter =   329
(PID.TID 0000.0001) ADWRITE:  tapeFileCounter =   330
(PID.TID 0000.0001) ADWRITE:  tapeFileCounter =   331
(PID.TID 0000.0001) ADWRITE:  tapeFileCounter =   332
(PID.TID 0000.0001) ADWRITE:  tapeFileCounter =   333
(PID.TID 0000.0001) ADWRITE:  tapeFileCounter =   334
(PID.TID 0000.0001) ADWRITE:  tapeFileCounter =   335
(PID.TID 0000.0001) ADWRITE:  tapeFileCounter =   336
(PID.TID 0000.0001) ADWRITE:  tapeFileCounter =   337
(PID.TID 0000.0001) ADWRITE:  tapeFileCounter =   338
(PID.TID 0000.0001) ADWRITE:  tapeFileCounter =   339
(PID.TID 0000.0001) ADWRITE:  tapeFileCounter =   340
(PID.TID 0000.0001) ADWRITE:  tapeFileCounter =   341
(PID.TID 0000.0001) ADWRITE:  tapeFileCounter =   342
(PID.TID 0000.0001) ADWRITE:  tapeFileCounter =   343
(PID.TID 0000.0001) ADWRITE:  tapeFileCounter =   344
(PID.TID 0000.0001) ADWRITE:  tapeFileCounter =   345
(PID.TID 0000.0001) ADWRITE: tid,vid, irec, length, prec(x2)=    39    40     3      672  8 64 fname=tapelev3_40_the_main_loop_areamask0
(PID.TID 0000.0001) ADWRITE:  tapeFileCounter =   346
(PID.TID 0000.0001) ADWRITE: tid,vid, irec, length, prec(x2)=    39    41     3      672  8 64 fname=tapelev3_41_the_main_loop_areamask1
(PID.TID 0000.0001) ADWRITE:  tapeFileCounter =   347
(PID.TID 0000.0001) ADWRITE: tid,vid, irec, length, prec(x2)=    39    42     3      672  8 64 fname=tapelev3_42_the_main_loop_hflux0
(PID.TID 0000.0001) ADWRITE:  tapeFileCounter =   348
(PID.TID 0000.0001) ADWRITE: tid,vid, irec, length, prec(x2)=    39    43     3      672  8 64 fname=tapelev3_43_the_main_loop_hflux1
(PID.TID 0000.0001) ADWRITE:  tapeFileCounter =   349
(PID.TID 0000.0001) ADWRITE: tid,vid, irec, length, prec(x2)=    39    44     3      672  8 64 fname=tapelev3_44_the_main_loop_sflux0
(PID.TID 0000.0001) ADWRITE:  tapeFileCounter =   350
(PID.TID 0000.0001) ADWRITE: tid,vid, irec, length, prec(x2)=    39    45     3      672  8 64 fname=tapelev3_45_the_main_loop_sflux1
(PID.TID 0000.0001) ADWRITE:  tapeFileCounter =   351
(PID.TID 0000.0001) ADWRITE: tid,vid, irec, length, prec(x2)=    39    46     3      672  8 64 fname=tapelev3_46_the_main_loop_ustress0
(PID.TID 0000.0001) ADWRITE:  tapeFileCounter =   352
(PID.TID 0000.0001) ADWRITE: tid,vid, irec, length, prec(x2)=    39    47     3      672  8 64 fname=tapelev3_47_the_main_loop_ustress1
(PID.TID 0000.0001) ADWRITE:  tapeFileCounter =   353
(PID.TID 0000.0001) ADWRITE: tid,vid, irec, length, prec(x2)=    39    48     3      672  8 64 fname=tapelev3_48_the_main_loop_vstress0
(PID.TID 0000.0001) ADWRITE:  tapeFileCounter =   354
(PID.TID 0000.0001) ADWRITE: tid,vid, irec, length, prec(x2)=    39    49     3      672  8 64 fname=tapelev3_49_the_main_loop_vstress1
(PID.TID 0000.0001) ADWRITE:  tapeFileCounter =   355
(PID.TID 0000.0001) ADWRITE: tid,vid, irec, length, prec(x2)=    39    50     3      672  8 64 fname=tapelev3_50_the_main_loop_wspeed0
(PID.TID 0000.0001) ADWRITE:  tapeFileCounter =   356
(PID.TID 0000.0001) ADWRITE: tid,vid, irec, length, prec(x2)=    39    51     3      672  8 64 fname=tapelev3_51_the_main_loop_wspeed1
(PID.TID 0000.0001) ADWRITE:  tapeFileCounter =   357
(PID.TID 0000.0001) ADWRITE: tid,vid, irec, length, prec(x2)=    39    54     3      672  8 64 fname=tapelev3_54_the_main_loop_runoff0
(PID.TID 0000.0001) ADWRITE:  tapeFileCounter =   358
(PID.TID 0000.0001) ADWRITE: tid,vid, irec, length, prec(x2)=    39    55     3      672  8 64 fname=tapelev3_55_the_main_loop_runoff1
(PID.TID 0000.0001) ADWRITE:  tapeFileCounter =   359
(PID.TID 0000.0001) ADWRITE: tid,vid, irec, length, prec(x2)=    39    56     3      672  8 64 fname=tapelev3_56_the_main_loop_apressure0
(PID.TID 0000.0001) ADWRITE:  tapeFileCounter =   360
(PID.TID 0000.0001) ADWRITE: tid,vid, irec, length, prec(x2)=    39    57     3      672  8 64 fname=tapelev3_57_the_main_loop_apressure1
(PID.TID 0000.0001) ADWRITE:  tapeFileCounter =   361
(PID.TID 0000.0001) ADWRITE: tid,vid, irec, length, prec(x2)=    39    58     3      672  8 64 fname=tapelev3_58_the_main_loop_siceload
(PID.TID 0000.0001) ADWRITE:  tapeFileCounter =   362
(PID.TID 0000.0001) ADWRITE: tid,vid, irec, length, prec(x2)=    39    59     3      672  8 64 fname=tapelev3_59_the_main_loop_climsss0
(PID.TID 0000.0001) ADWRITE:  tapeFileCounter =   363
(PID.TID 0000.0001) ADWRITE: tid,vid, irec, length, prec(x2)=    39    60     3      672  8 64 fname=tapelev3_60_the_main_loop_climsss1
(PID.TID 0000.0001) ADWRITE:  tapeFileCounter =   364
(PID.TID 0000.0001) ADWRITE: tid,vid, irec, length, prec(x2)=    39    61     3      672  8 64 fname=tapelev3_61_the_main_loop_climsst0
(PID.TID 0000.0001) ADWRITE:  tapeFileCounter =   365
(PID.TID 0000.0001) ADWRITE: tid,vid, irec, length, prec(x2)=    39    62     3      672  8 64 fname=tapelev3_62_the_main_loop_climsst1
(PID.TID 0000.0001) ADWRITE:  tapeFileCounter =   366
(PID.TID 0000.0001) ADWRITE: tid,vid, irec, length, prec(x2)=    39    63     3      672  8 64 fname=tapelev3_63_the_main_loop_saltflx0
(PID.TID 0000.0001) ADWRITE:  tapeFileCounter =   367
(PID.TID 0000.0001) ADWRITE: tid,vid, irec, length, prec(x2)=    39    64     3      672  8 64 fname=tapelev3_64_the_main_loop_saltflx1
(PID.TID 0000.0001) ADWRITE:  tapeFileCounter =   368
(PID.TID 0000.0001) ADWRITE: tid,vid, irec, length, prec(x2)=    39    65     3      672  8 64 fname=tapelev3_65_the_main_loop_aqh0
(PID.TID 0000.0001) ADWRITE:  tapeFileCounter =   369
(PID.TID 0000.0001) ADWRITE: tid,vid, irec, length, prec(x2)=    39    66     3      672  8 64 fname=tapelev3_66_the_main_loop_aqh1
(PID.TID 0000.0001) ADWRITE:  tapeFileCounter =   370
(PID.TID 0000.0001) ADWRITE: tid,vid, irec, length, prec(x2)=    39    67     3      672  8 64 fname=tapelev3_67_the_main_loop_atemp0
(PID.TID 0000.0001) ADWRITE:  tapeFileCounter =   371
(PID.TID 0000.0001) ADWRITE: tid,vid, irec, length, prec(x2)=    39    68     3      672  8 64 fname=tapelev3_68_the_main_loop_atemp1
(PID.TID 0000.0001) ADWRITE:  tapeFileCounter =   372
(PID.TID 0000.0001) ADWRITE: tid,vid, irec, length, prec(x2)=    39    69     3      672  8 64 fname=tapelev3_69_the_main_loop_precip0
(PID.TID 0000.0001) ADWRITE:  tapeFileCounter =   373
(PID.TID 0000.0001) ADWRITE: tid,vid, irec, length, prec(x2)=    39    70     3      672  8 64 fname=tapelev3_70_the_main_loop_precip1
(PID.TID 0000.0001) ADWRITE:  tapeFileCounter =   374
(PID.TID 0000.0001) ADWRITE: tid,vid, irec, length, prec(x2)=    39    73     3      672  8 64 fname=tapelev3_73_the_main_loop_snowprecip0
(PID.TID 0000.0001) ADWRITE:  tapeFileCounter =   375
(PID.TID 0000.0001) ADWRITE: tid,vid, irec, length, prec(x2)=    39    74     3      672  8 64 fname=tapelev3_74_the_main_loop_snowprecip1
(PID.TID 0000.0001) ADWRITE:  tapeFileCounter =   376
(PID.TID 0000.0001) ADWRITE: tid,vid, irec, length, prec(x2)=    39    75     3      672  8 64 fname=tapelev3_75_the_main_loop_swdown0
(PID.TID 0000.0001) ADWRITE:  tapeFileCounter =   377
(PID.TID 0000.0001) ADWRITE: tid,vid, irec, length, prec(x2)=    39    76     3      672  8 64 fname=tapelev3_76_the_main_loop_swdown1
(PID.TID 0000.0001) ADWRITE:  tapeFileCounter =   378
(PID.TID 0000.0001) ADWRITE: tid,vid, irec, length, prec(x2)=    39    77     3      672  8 64 fname=tapelev3_77_the_main_loop_lwdown0
(PID.TID 0000.0001) ADWRITE:  tapeFileCounter =   379
(PID.TID 0000.0001) ADWRITE: tid,vid, irec, length, prec(x2)=    39    78     3      672  8 64 fname=tapelev3_78_the_main_loop_lwdown1
(PID.TID 0000.0001) ADWRITE:  tapeFileCounter =   380
(PID.TID 0000.0001) ADWRITE: tid,vid, irec, length, prec(x2)=    39    79     3      672  8 64 fname=tapelev3_79_the_main_loop_uwind0
(PID.TID 0000.0001) ADWRITE:  tapeFileCounter =   381
(PID.TID 0000.0001) ADWRITE: tid,vid, irec, length, prec(x2)=    39    80     3      672  8 64 fname=tapelev3_80_the_main_loop_uwind1
(PID.TID 0000.0001) ADWRITE:  tapeFileCounter =   382
(PID.TID 0000.0001) ADWRITE: tid,vid, irec, length, prec(x2)=    39    81     3      672  8 64 fname=tapelev3_81_the_main_loop_vwind0
(PID.TID 0000.0001) ADWRITE:  tapeFileCounter =   383
(PID.TID 0000.0001) ADWRITE: tid,vid, irec, length, prec(x2)=    39    82     3      672  8 64 fname=tapelev3_82_the_main_loop_vwind1
(PID.TID 0000.0001) ADWRITE:  tapeFileCounter =   384
(PID.TID 0000.0001) ADWRITE: tid,vid, irec, length, prec(x2)=    39    83     3     6048  8 64 fname=tapelev3_83_the_main_loop_xx_gentim2d
(PID.TID 0000.0001) ADWRITE:  tapeFileCounter =   385
(PID.TID 0000.0001) ADWRITE:  tapeFileCounter =   386
(PID.TID 0000.0001) ADWRITE:  tapeFileCounter =   387
(PID.TID 0000.0001) ADWRITE:  tapeFileCounter =   388
(PID.TID 0000.0001) ADWRITE:  tapeFileCounter =   389
(PID.TID 0000.0001) ADWRITE:  tapeFileCounter =   390
(PID.TID 0000.0001) ADWRITE:  tapeFileCounter =   391
(PID.TID 0000.0001) ADWRITE:  tapeFileCounter =   392
(PID.TID 0000.0001) ADWRITE:  tapeFileCounter =   393
(PID.TID 0000.0001) ADWRITE: tid,vid, irec, length, prec(x2)=    39    84     3     6048  8 64 fname=tapelev3_84_the_main_loop_xx_gentim2d0
(PID.TID 0000.0001) ADWRITE:  tapeFileCounter =   394
(PID.TID 0000.0001) ADWRITE:  tapeFileCounter =   395
(PID.TID 0000.0001) ADWRITE:  tapeFileCounter =   396
(PID.TID 0000.0001) ADWRITE:  tapeFileCounter =   397
(PID.TID 0000.0001) ADWRITE:  tapeFileCounter =   398
(PID.TID 0000.0001) ADWRITE:  tapeFileCounter =   399
(PID.TID 0000.0001) ADWRITE:  tapeFileCounter =   400
(PID.TID 0000.0001) ADWRITE:  tapeFileCounter =   401
(PID.TID 0000.0001) ADWRITE:  tapeFileCounter =   402
(PID.TID 0000.0001) ADWRITE: tid,vid, irec, length, prec(x2)=    39    85     3     6048  8 64 fname=tapelev3_85_the_main_loop_xx_gentim2d1
(PID.TID 0000.0001) ADWRITE:  tapeFileCounter =   403
(PID.TID 0000.0001) ADWRITE:  tapeFileCounter =   404
(PID.TID 0000.0001) ADWRITE:  tapeFileCounter =   405
(PID.TID 0000.0001) ADWRITE:  tapeFileCounter =   406
(PID.TID 0000.0001) ADWRITE:  tapeFileCounter =   407
(PID.TID 0000.0001) ADWRITE:  tapeFileCounter =   408
(PID.TID 0000.0001) ADWRITE:  tapeFileCounter =   409
(PID.TID 0000.0001) ADWRITE:  tapeFileCounter =   410
(PID.TID 0000.0001) ADWRITE:  tapeFileCounter =   411
(PID.TID 0000.0001) ADWRITE: tid,vid, irec, length, prec(x2)=    39    87     3      672  8 64 fname=tapelev3_87_the_main_loop_phihydlow
(PID.TID 0000.0001) ADWRITE:  tapeFileCounter =   412
(PID.TID 0000.0001) ADWRITE: tid,vid, irec, length, prec(x2)=    39    88     3      672  8 64 fname=tapelev3_88_the_main_loop_area
(PID.TID 0000.0001) ADWRITE:  tapeFileCounter =   413
(PID.TID 0000.0001) ADWRITE: tid,vid, irec, length, prec(x2)=    39    89     3      672  8 64 fname=tapelev3_89_the_main_loop_heff
(PID.TID 0000.0001) ADWRITE:  tapeFileCounter =   414
(PID.TID 0000.0001) ADWRITE: tid,vid, irec, length, prec(x2)=    39    90     3      672  8 64 fname=tapelev3_90_the_main_loop_hsnow
(PID.TID 0000.0001) ADWRITE:  tapeFileCounter =   415
(PID.TID 0000.0001) ADWRITE: tid,vid, irec, length, prec(x2)=    39    92     3      672  8 64 fname=tapelev3_92_the_main_loop_uice
(PID.TID 0000.0001) ADWRITE:  tapeFileCounter =   416
(PID.TID 0000.0001) ADWRITE: tid,vid, irec, length, prec(x2)=    39    93     3      672  8 64 fname=tapelev3_93_the_main_loop_vice
(PID.TID 0000.0001) ADWRITE:  tapeFileCounter =   417
(PID.TID 0000.0001) ADWRITE: tid,vid, irec, length, prec(x2)=    39    96     3     4704  8 64 fname=tapelev3_96_the_main_loop_tices
(PID.TID 0000.0001) ADWRITE:  tapeFileCounter =   418
(PID.TID 0000.0001) ADWRITE:  tapeFileCounter =   419
(PID.TID 0000.0001) ADWRITE:  tapeFileCounter =   420
(PID.TID 0000.0001) ADWRITE:  tapeFileCounter =   421
(PID.TID 0000.0001) ADWRITE:  tapeFileCounter =   422
(PID.TID 0000.0001) ADWRITE:  tapeFileCounter =   423
(PID.TID 0000.0001) ADWRITE:  tapeFileCounter =   424
(PID.TID 0000.0001) ADWRITE: tid,vid, irec, length, prec(x2)=    39    97     3      672  8 64 fname=tapelev3_97_the_main_loop_dwatn
(PID.TID 0000.0001) ADWRITE:  tapeFileCounter =   425
(PID.TID 0000.0001) ADWRITE: tid,vid, irec, length, prec(x2)=    39    98     3      672  8 64 fname=tapelev3_98_the_main_loop_stressdivergencex
(PID.TID 0000.0001) ADWRITE:  tapeFileCounter =   426
(PID.TID 0000.0001) ADWRITE: tid,vid, irec, length, prec(x2)=    39    99     3      672  8 64 fname=tapelev3_99_the_main_loop_stressdivergencey
(PID.TID 0000.0001) ADWRITE:  tapeFileCounter =   427
(PID.TID 0000.0001) ADWRITE: tid,vid, irec, length, prec(x2)=    39   100     3      672  8 64 fname=tapelev3_100_the_main_loop_seaice_sigma1
(PID.TID 0000.0001) ADWRITE:  tapeFileCounter =   428
(PID.TID 0000.0001) ADWRITE: tid,vid, irec, length, prec(x2)=    39   101     3      672  8 64 fname=tapelev3_101_the_main_loop_seaice_sigma2
(PID.TID 0000.0001) ADWRITE:  tapeFileCounter =   429
(PID.TID 0000.0001) ADWRITE: tid,vid, irec, length, prec(x2)=    39   102     3      672  8 64 fname=tapelev3_102_the_main_loop_seaice_sigma12
(PID.TID 0000.0001) ADWRITE:  tapeFileCounter =   430
(PID.TID 0000.0001) ADWRITE: tid,vid, irec, length, prec(x2)=    39   103     3      672  8 64 fname=tapelev3_103_the_main_loop_hsalt
(PID.TID 0000.0001) ADWRITE:  tapeFileCounter =   431
(PID.TID 0000.0001) whio : write lev 3 rec   3
(PID.TID 0000.0001)  MDS_WRITE_FIELD: it,rec,kS,kL,kH=       1     9   1   1   1 file=m_sst_step.0000000001
(PID.TID 0000.0001)  MDS_READ_FIELD: opening global file: xx_atemp.effective.0000000001.data
(PID.TID 0000.0001) EXF_SET_FLD: processing field "climsss",  file: SSS_monthly.labsea1979
(PID.TID 0000.0001) EXF_SET_FLD:   myIter, count0, count1:         8      1      2
(PID.TID 0000.0001) EXF_SET_FLD:   first, changed, fac:   F   F    0.48907103825136611
(PID.TID 0000.0001) EXF_SET_FLD: processing field "uwind",  file: u10m.labsea1979
(PID.TID 0000.0001) EXF_SET_FLD:   myIter, count0, count1:         8      1      2
(PID.TID 0000.0001) EXF_SET_FLD:   first, changed, fac:   F   F    0.48907103825136611
(PID.TID 0000.0001) EXF_SET_FLD: processing field "vwind",  file: v10m.labsea1979
(PID.TID 0000.0001) EXF_SET_FLD:   myIter, count0, count1:         8      1      2
(PID.TID 0000.0001) EXF_SET_FLD:   first, changed, fac:   F   F    0.48907103825136611
(PID.TID 0000.0001) EXF_SET_FLD: processing field "atemp",  file: tair.labsea1979
(PID.TID 0000.0001) EXF_SET_FLD:   myIter, count0, count1:         8      1      2
(PID.TID 0000.0001) EXF_SET_FLD:   first, changed, fac:   F   F    0.48907103825136611
(PID.TID 0000.0001) EXF_SET_FLD: processing field "aqh",  file: qa.labsea1979
(PID.TID 0000.0001) EXF_SET_FLD:   myIter, count0, count1:         8      1      2
(PID.TID 0000.0001) EXF_SET_FLD:   first, changed, fac:   F   F    0.48907103825136611
(PID.TID 0000.0001) EXF_SET_FLD: processing field "precip",  file: prate.labsea1979
(PID.TID 0000.0001) EXF_SET_FLD:   myIter, count0, count1:         8      1      2
(PID.TID 0000.0001) EXF_SET_FLD:   first, changed, fac:   F   F    0.48907103825136611
(PID.TID 0000.0001) EXF_SET_FLD: processing field "swdown",  file: fsh.labsea1979
(PID.TID 0000.0001) EXF_SET_FLD:   myIter, count0, count1:         8      1      2
(PID.TID 0000.0001) EXF_SET_FLD:   first, changed, fac:   F   F    0.48907103825136611
(PID.TID 0000.0001) EXF_SET_FLD: processing field "lwdown",  file: flo.labsea1979
(PID.TID 0000.0001) EXF_SET_FLD:   myIter, count0, count1:         8      1      2
(PID.TID 0000.0001) EXF_SET_FLD:   first, changed, fac:   F   F    0.48907103825136611
(PID.TID 0000.0001) // =======================================================
(PID.TID 0000.0001) // Begin MONITOR EXF statistics
(PID.TID 0000.0001) // =======================================================
(PID.TID 0000.0001) %MON exf_tsnumber                 =                     8
(PID.TID 0000.0001) %MON exf_time_sec                 =   2.8800000000000E+04
(PID.TID 0000.0001) %MON exf_ustress_max              =   5.1949622251800E-02
(PID.TID 0000.0001) %MON exf_ustress_min              =  -9.3533727559812E-02
(PID.TID 0000.0001) %MON exf_ustress_mean             =   1.7286219703216E-02
(PID.TID 0000.0001) %MON exf_ustress_sd               =   2.3294037561290E-02
(PID.TID 0000.0001) %MON exf_ustress_del2             =   7.1260897183348E-04
(PID.TID 0000.0001) %MON exf_vstress_max              =   5.3683052245317E-02
(PID.TID 0000.0001) %MON exf_vstress_min              =  -5.8107751612079E-02
(PID.TID 0000.0001) %MON exf_vstress_mean             =  -5.3826550331846E-03
(PID.TID 0000.0001) %MON exf_vstress_sd               =   1.4271315488694E-02
(PID.TID 0000.0001) %MON exf_vstress_del2             =   5.1859849182861E-04
(PID.TID 0000.0001) %MON exf_hflux_max                =   6.2046688379819E+02
(PID.TID 0000.0001) %MON exf_hflux_min                =  -4.8459507808829E+01
(PID.TID 0000.0001) %MON exf_hflux_mean               =   1.4849864468574E+02
(PID.TID 0000.0001) %MON exf_hflux_sd                 =   1.7824970328101E+02
(PID.TID 0000.0001) %MON exf_hflux_del2               =   5.2637873731862E+00
(PID.TID 0000.0001) %MON exf_sflux_max                =   4.0134251473299E-08
(PID.TID 0000.0001) %MON exf_sflux_min                =  -8.8510695637131E-08
(PID.TID 0000.0001) %MON exf_sflux_mean               =  -2.5898707821704E-08
(PID.TID 0000.0001) %MON exf_sflux_sd                 =   3.0744488822009E-08
(PID.TID 0000.0001) %MON exf_sflux_del2               =   9.5892353450929E-10
(PID.TID 0000.0001) %MON exf_uwind_max                =   6.4684341618272E+00
(PID.TID 0000.0001) %MON exf_uwind_min                =  -6.8374523269674E+00
(PID.TID 0000.0001) %MON exf_uwind_mean               =   2.7706331523584E+00
(PID.TID 0000.0001) %MON exf_uwind_sd                 =   2.9922491036980E+00
(PID.TID 0000.0001) %MON exf_uwind_del2               =   8.0271435604014E-02
(PID.TID 0000.0001) %MON exf_vwind_max                =   3.9243096588739E+00
(PID.TID 0000.0001) %MON exf_vwind_min                =  -6.0124561096150E+00
(PID.TID 0000.0001) %MON exf_vwind_mean               =  -7.5595649652871E-01
(PID.TID 0000.0001) %MON exf_vwind_sd                 =   1.7302112611019E+00
(PID.TID 0000.0001) %MON exf_vwind_del2               =   4.8613928316913E-02
(PID.TID 0000.0001) %MON exf_wspeed_max               =   7.8835880550853E+00
(PID.TID 0000.0001) %MON exf_wspeed_min               =   4.5840953253040E-01
(PID.TID 0000.0001) %MON exf_wspeed_mean              =   4.1989448725728E+00
(PID.TID 0000.0001) %MON exf_wspeed_sd                =   1.6012263903992E+00
(PID.TID 0000.0001) %MON exf_wspeed_del2              =   1.3310013526230E-01
(PID.TID 0000.0001) %MON exf_atemp_max                =   2.8236911527707E+02
(PID.TID 0000.0001) %MON exf_atemp_min                =   2.3692604936277E+02
(PID.TID 0000.0001) %MON exf_atemp_mean               =   2.6440890515856E+02
(PID.TID 0000.0001) %MON exf_atemp_sd                 =   1.1995115599497E+01
(PID.TID 0000.0001) %MON exf_atemp_del2               =   1.6505564798724E-01
(PID.TID 0000.0001) %MON exf_aqh_max                  =   6.3176006167781E-03
(PID.TID 0000.0001) %MON exf_aqh_min                  =   1.6293992018683E-04
(PID.TID 0000.0001) %MON exf_aqh_mean                 =   2.4758800589519E-03
(PID.TID 0000.0001) %MON exf_aqh_sd                   =   1.4256836550895E-03
(PID.TID 0000.0001) %MON exf_aqh_del2                 =   1.7531923878911E-05
(PID.TID 0000.0001) %MON exf_lwflux_max               =   1.8508510275675E+02
(PID.TID 0000.0001) %MON exf_lwflux_min               =   3.4538344381050E+01
(PID.TID 0000.0001) %MON exf_lwflux_mean              =   8.1654499915116E+01
(PID.TID 0000.0001) %MON exf_lwflux_sd                =   4.1713242321202E+01
(PID.TID 0000.0001) %MON exf_lwflux_del2              =   8.9588167134057E-01
(PID.TID 0000.0001) %MON exf_evap_max                 =   4.6453157609949E-08
(PID.TID 0000.0001) %MON exf_evap_min                 =  -5.1180372506519E-09
(PID.TID 0000.0001) %MON exf_evap_mean                =   1.0491285969107E-08
(PID.TID 0000.0001) %MON exf_evap_sd                  =   1.1492544098320E-08
(PID.TID 0000.0001) %MON exf_evap_del2                =   4.5193124058367E-10
(PID.TID 0000.0001) %MON exf_precip_max               =   1.0499871454869E-07
(PID.TID 0000.0001) %MON exf_precip_min               =   2.7252357516229E-10
(PID.TID 0000.0001) %MON exf_precip_mean              =   3.6389993790810E-08
(PID.TID 0000.0001) %MON exf_precip_sd                =   2.0581769987393E-08
(PID.TID 0000.0001) %MON exf_precip_del2              =   8.1132759546383E-10
(PID.TID 0000.0001) %MON exf_swflux_max               =  -8.1208018494434E-02
(PID.TID 0000.0001) %MON exf_swflux_min               =  -6.4124076818247E+01
(PID.TID 0000.0001) %MON exf_swflux_mean              =  -2.6537480749947E+01
(PID.TID 0000.0001) %MON exf_swflux_sd                =   1.9656602581253E+01
(PID.TID 0000.0001) %MON exf_swflux_del2              =   8.9798833662667E-02
(PID.TID 0000.0001) %MON exf_swdown_max               =   7.1248974242497E+01
(PID.TID 0000.0001) %MON exf_swdown_min               =   9.0231131660482E-02
(PID.TID 0000.0001) %MON exf_swdown_mean              =   2.9486089722164E+01
(PID.TID 0000.0001) %MON exf_swdown_sd                =   2.1840669534725E+01
(PID.TID 0000.0001) %MON exf_swdown_del2              =   9.9776481847408E-02
(PID.TID 0000.0001) %MON exf_lwdown_max               =   3.0560910934698E+02
(PID.TID 0000.0001) %MON exf_lwdown_min               =   1.1587683707899E+02
(PID.TID 0000.0001) %MON exf_lwdown_mean              =   2.2582365832661E+02
(PID.TID 0000.0001) %MON exf_lwdown_sd                =   4.6309216947189E+01
(PID.TID 0000.0001) %MON exf_lwdown_del2              =   9.0921058176775E-01
(PID.TID 0000.0001) %MON exf_climsss_max              =   3.5041808863155E+01
(PID.TID 0000.0001) %MON exf_climsss_min              =   3.0672387795370E+01
(PID.TID 0000.0001) %MON exf_climsss_mean             =   3.3463490268825E+01
(PID.TID 0000.0001) %MON exf_climsss_sd               =   1.0313879583737E+00
(PID.TID 0000.0001) %MON exf_climsss_del2             =   2.6968424438251E-02
(PID.TID 0000.0001) // =======================================================
(PID.TID 0000.0001) // End MONITOR EXF statistics
(PID.TID 0000.0001) // =======================================================
DEBUG_STATS_RL: Uice pre  iter (SEAICE_LSR  1)  min= -1.95687208100102E-02
DEBUG_STATS_RL: Uice pre  iter (SEAICE_LSR  1)  max=  2.56695252608154E-01
DEBUG_STATS_RL: Uice pre  iter (SEAICE_LSR  1) mean=  6.10102626008752E-02
DEBUG_STATS_RL: Uice pre  iter (SEAICE_LSR  1) S.D.=  7.26515133443026E-02
DEBUG_STATS_RL: Vice pre  iter (SEAICE_LSR  1)  min= -1.74351841639993E-01
DEBUG_STATS_RL: Vice pre  iter (SEAICE_LSR  1)  max=  6.17815719868620E-02
DEBUG_STATS_RL: Vice pre  iter (SEAICE_LSR  1) mean= -5.34332922103127E-02
DEBUG_STATS_RL: Vice pre  iter (SEAICE_LSR  1) S.D.=  5.91879685811095E-02
DEBUG_STATS_RL: Uice pre  iter (SEAICE_LSR  2)  min= -2.10631196463131E-02
DEBUG_STATS_RL: Uice pre  iter (SEAICE_LSR  2)  max=  2.47741110498678E-01
DEBUG_STATS_RL: Uice pre  iter (SEAICE_LSR  2) mean=  5.58563099525574E-02
DEBUG_STATS_RL: Uice pre  iter (SEAICE_LSR  2) S.D.=  6.83562873807025E-02
DEBUG_STATS_RL: Vice pre  iter (SEAICE_LSR  2)  min= -1.71270231909308E-01
DEBUG_STATS_RL: Vice pre  iter (SEAICE_LSR  2)  max=  5.00408736690829E-02
DEBUG_STATS_RL: Vice pre  iter (SEAICE_LSR  2) mean= -5.35471708937630E-02
DEBUG_STATS_RL: Vice pre  iter (SEAICE_LSR  2) S.D.=  5.75117440524867E-02
DEBUG_STATS_RL:                EtaN (DYNAMICS)  min= -1.16069768363258E-01
DEBUG_STATS_RL:                EtaN (DYNAMICS)  max=  3.26639972250553E-01
DEBUG_STATS_RL:                EtaN (DYNAMICS) mean= -4.23481440025525E-03
DEBUG_STATS_RL:                EtaN (DYNAMICS) S.D.=  6.63305979494085E-02
DEBUG_STATS_RL:                Uvel (DYNAMICS)  min= -4.34802359621465E-02
DEBUG_STATS_RL:                Uvel (DYNAMICS)  max=  9.99752242998808E-02
DEBUG_STATS_RL:                Uvel (DYNAMICS) mean=  3.48264152589957E-03
DEBUG_STATS_RL:                Uvel (DYNAMICS) S.D.=  1.35343125506116E-02
DEBUG_STATS_RL:                Vvel (DYNAMICS)  min= -1.33439207289254E-01
DEBUG_STATS_RL:                Vvel (DYNAMICS)  max=  5.60260700766945E-02
DEBUG_STATS_RL:                Vvel (DYNAMICS) mean= -4.02696574872961E-03
DEBUG_STATS_RL:                Vvel (DYNAMICS) S.D.=  1.80273334212797E-02
DEBUG_STATS_RL:                Wvel (DYNAMICS)  min= -2.73348162229354E-04
DEBUG_STATS_RL:                Wvel (DYNAMICS)  max=  3.13596923283671E-04
DEBUG_STATS_RL:                Wvel (DYNAMICS) mean=  4.73709411313520E-08
DEBUG_STATS_RL:                Wvel (DYNAMICS) S.D.=  2.82661454219204E-05
DEBUG_STATS_RL:               Theta (DYNAMICS)  min= -1.95943609422387E+00
DEBUG_STATS_RL:               Theta (DYNAMICS)  max=  1.32225113409295E+01
DEBUG_STATS_RL:               Theta (DYNAMICS) mean=  2.41480286619418E+00
DEBUG_STATS_RL:               Theta (DYNAMICS) S.D.=  2.57398860030337E+00
DEBUG_STATS_RL:                Salt (DYNAMICS)  min=  2.76387468555707E+01
DEBUG_STATS_RL:                Salt (DYNAMICS)  max=  3.54510358217953E+01
DEBUG_STATS_RL:                Salt (DYNAMICS) mean=  3.39367601804946E+01
DEBUG_STATS_RL:                Salt (DYNAMICS) S.D.=  1.15334890349729E+00
DEBUG_STATS_RL:                  Gu (DYNAMICS)  min= -5.98368153074020E-02
DEBUG_STATS_RL:                  Gu (DYNAMICS)  max=  9.68873121299251E-02
DEBUG_STATS_RL:                  Gu (DYNAMICS) mean=  1.30194972947503E-03
DEBUG_STATS_RL:                  Gu (DYNAMICS) S.D.=  1.61566615235326E-02
DEBUG_STATS_RL:                  Gv (DYNAMICS)  min= -1.36271217267994E-01
DEBUG_STATS_RL:                  Gv (DYNAMICS)  max=  3.83573237348583E-02
DEBUG_STATS_RL:                  Gv (DYNAMICS) mean= -7.71950831958569E-03
DEBUG_STATS_RL:                  Gv (DYNAMICS) S.D.=  1.77533563667874E-02
DEBUG_STATS_RL:               GuNm1 (DYNAMICS)  min= -3.40955168137046E-07
DEBUG_STATS_RL:               GuNm1 (DYNAMICS)  max=  1.82641400821284E-07
DEBUG_STATS_RL:               GuNm1 (DYNAMICS) mean= -2.79196714442664E-09
DEBUG_STATS_RL:               GuNm1 (DYNAMICS) S.D.=  4.07453533304239E-08
DEBUG_STATS_RL:               GvNm1 (DYNAMICS)  min= -2.14559263714299E-07
DEBUG_STATS_RL:               GvNm1 (DYNAMICS)  max=  1.94148824775153E-07
DEBUG_STATS_RL:               GvNm1 (DYNAMICS) mean= -4.04169206802268E-10
DEBUG_STATS_RL:               GvNm1 (DYNAMICS) S.D.=  4.19222729579498E-08
DEBUG_STATS_RL:               GtNm1 (DYNAMICS)  min=  0.00000000000000E+00
DEBUG_STATS_RL:               GtNm1 (DYNAMICS)  max=  0.00000000000000E+00
DEBUG_STATS_RL:               GtNm1 (DYNAMICS) mean=  0.00000000000000E+00
DEBUG_STATS_RL:               GtNm1 (DYNAMICS) S.D.=  0.00000000000000E+00
DEBUG_STATS_RL:               GsNm1 (DYNAMICS)  min=  0.00000000000000E+00
DEBUG_STATS_RL:               GsNm1 (DYNAMICS)  max=  0.00000000000000E+00
DEBUG_STATS_RL:               GsNm1 (DYNAMICS) mean=  0.00000000000000E+00
DEBUG_STATS_RL:               GsNm1 (DYNAMICS) S.D.=  0.00000000000000E+00
DEBUG_STATS_RL:    cg2d_b (SOLVE_FOR_PRESSURE)  min= -7.29975929937793E+03
DEBUG_STATS_RL:    cg2d_b (SOLVE_FOR_PRESSURE)  max=  2.19478299507054E+03
DEBUG_STATS_RL:    cg2d_b (SOLVE_FOR_PRESSURE) mean= -3.96767063648440E-13
DEBUG_STATS_RL:    cg2d_b (SOLVE_FOR_PRESSURE) S.D.=  8.94146290227710E+02
 cg2d: Sum(rhs),rhsMax =  -6.92501611609941E-15  1.17489186776824E+00
DEBUG_STATS_RL:    cg2d_x (SOLVE_FOR_PRESSURE)  min= -1.08771127617308E+00
DEBUG_STATS_RL:    cg2d_x (SOLVE_FOR_PRESSURE)  max=  3.12128519797376E+00
DEBUG_STATS_RL:    cg2d_x (SOLVE_FOR_PRESSURE) mean= -4.19588396852395E-02
DEBUG_STATS_RL:    cg2d_x (SOLVE_FOR_PRESSURE) S.D.=  6.20262122262901E-01
(PID.TID 0000.0001)      cg2d_init_res =   5.82874136986767E-02
(PID.TID 0000.0001)      cg2d_iters(min,last) =      -1      43
(PID.TID 0000.0001)      cg2d_last_res =   4.65106505919221E-14
DEBUG_STATS_RL:          Uvel (THERMODYNAMICS)  min= -5.12375198242059E-02
DEBUG_STATS_RL:          Uvel (THERMODYNAMICS)  max=  8.84896388076339E-02
DEBUG_STATS_RL:          Uvel (THERMODYNAMICS) mean=  2.55769138538291E-03
DEBUG_STATS_RL:          Uvel (THERMODYNAMICS) S.D.=  1.29064693910456E-02
DEBUG_STATS_RL:          Vvel (THERMODYNAMICS)  min= -1.29344604199479E-01
DEBUG_STATS_RL:          Vvel (THERMODYNAMICS)  max=  4.58633296186249E-02
DEBUG_STATS_RL:          Vvel (THERMODYNAMICS) mean= -4.14107843006319E-03
DEBUG_STATS_RL:          Vvel (THERMODYNAMICS) S.D.=  1.66082836245794E-02
DEBUG_STATS_RL:          Wvel (THERMODYNAMICS)  min= -2.60848991809587E-04
DEBUG_STATS_RL:          Wvel (THERMODYNAMICS)  max=  2.85731299794369E-04
DEBUG_STATS_RL:          Wvel (THERMODYNAMICS) mean=  1.36793666178293E-07
DEBUG_STATS_RL:          Wvel (THERMODYNAMICS) S.D.=  2.70580054557619E-05
DEBUG_STATS_RL:         Theta (THERMODYNAMICS)  min= -1.95932886747261E+00
DEBUG_STATS_RL:         Theta (THERMODYNAMICS)  max=  1.32010303660582E+01
DEBUG_STATS_RL:         Theta (THERMODYNAMICS) mean=  2.41452315045422E+00
DEBUG_STATS_RL:         Theta (THERMODYNAMICS) S.D.=  2.57350774067654E+00
DEBUG_STATS_RL:          Salt (THERMODYNAMICS)  min=  2.76435505129419E+01
DEBUG_STATS_RL:          Salt (THERMODYNAMICS)  max=  3.54508660670958E+01
DEBUG_STATS_RL:          Salt (THERMODYNAMICS) mean=  3.39367749828872E+01
DEBUG_STATS_RL:          Salt (THERMODYNAMICS) S.D.=  1.15309738582237E+00
DEBUG_STATS_RL:         GtNm1 (THERMODYNAMICS)  min=  0.00000000000000E+00
DEBUG_STATS_RL:         GtNm1 (THERMODYNAMICS)  max=  0.00000000000000E+00
DEBUG_STATS_RL:         GtNm1 (THERMODYNAMICS) mean=  0.00000000000000E+00
DEBUG_STATS_RL:         GtNm1 (THERMODYNAMICS) S.D.=  0.00000000000000E+00
DEBUG_STATS_RL:         GsNm1 (THERMODYNAMICS)  min=  0.00000000000000E+00
DEBUG_STATS_RL:         GsNm1 (THERMODYNAMICS)  max=  0.00000000000000E+00
DEBUG_STATS_RL:         GsNm1 (THERMODYNAMICS) mean=  0.00000000000000E+00
DEBUG_STATS_RL:         GsNm1 (THERMODYNAMICS) S.D.=  0.00000000000000E+00
(PID.TID 0000.0001) // =======================================================
(PID.TID 0000.0001) // Begin MONITOR dynamic field statistics
(PID.TID 0000.0001) // =======================================================
(PID.TID 0000.0001) %MON time_tsnumber                =                     9
(PID.TID 0000.0001) %MON time_secondsf                =   3.2400000000000E+04
(PID.TID 0000.0001) %MON dynstat_eta_max              =   3.1799229776822E-01
(PID.TID 0000.0001) %MON dynstat_eta_min              =  -1.1081454788022E-01
(PID.TID 0000.0001) %MON dynstat_eta_mean             =   3.6086751436910E-16
(PID.TID 0000.0001) %MON dynstat_eta_sd               =   7.0034867585130E-02
(PID.TID 0000.0001) %MON dynstat_eta_del2             =   2.4903422988240E-03
(PID.TID 0000.0001) %MON dynstat_uvel_max             =   8.8489638807634E-02
(PID.TID 0000.0001) %MON dynstat_uvel_min             =  -5.1237519824206E-02
(PID.TID 0000.0001) %MON dynstat_uvel_mean            =   3.9570581337115E-05
(PID.TID 0000.0001) %MON dynstat_uvel_sd              =   8.4067450913468E-03
(PID.TID 0000.0001) %MON dynstat_uvel_del2            =   2.6760488162070E-04
(PID.TID 0000.0001) %MON dynstat_vvel_max             =   4.5863329618625E-02
(PID.TID 0000.0001) %MON dynstat_vvel_min             =  -1.2934460419948E-01
(PID.TID 0000.0001) %MON dynstat_vvel_mean            =   2.3610339510277E-04
(PID.TID 0000.0001) %MON dynstat_vvel_sd              =   7.0897321724133E-03
(PID.TID 0000.0001) %MON dynstat_vvel_del2            =   2.6048091158772E-04
(PID.TID 0000.0001) %MON dynstat_wvel_max             =   2.8573129979437E-04
(PID.TID 0000.0001) %MON dynstat_wvel_min             =  -2.6084899180959E-04
(PID.TID 0000.0001) %MON dynstat_wvel_mean            =   2.8731194515820E-22
(PID.TID 0000.0001) %MON dynstat_wvel_sd              =   5.3333907461664E-05
(PID.TID 0000.0001) %MON dynstat_wvel_del2            =   8.1039552157179E-07
(PID.TID 0000.0001) %MON dynstat_theta_max            =   1.3201030366058E+01
(PID.TID 0000.0001) %MON dynstat_theta_min            =  -1.9593288674726E+00
(PID.TID 0000.0001) %MON dynstat_theta_mean           =   3.0732045908988E+00
(PID.TID 0000.0001) %MON dynstat_theta_sd             =   1.4278646050173E+00
(PID.TID 0000.0001) %MON dynstat_theta_del2           =   9.8056537424409E-03
(PID.TID 0000.0001) %MON dynstat_salt_max             =   3.5450866067096E+01
(PID.TID 0000.0001) %MON dynstat_salt_min             =   2.7643550512942E+01
(PID.TID 0000.0001) %MON dynstat_salt_mean            =   3.4746191012458E+01
(PID.TID 0000.0001) %MON dynstat_salt_sd              =   5.1251473924392E-01
(PID.TID 0000.0001) %MON dynstat_salt_del2            =   3.6459410962493E-03
(PID.TID 0000.0001) %MON dynstat_sst_max              =   5.4980184553122E+00
(PID.TID 0000.0001) %MON dynstat_sst_min              =  -1.9593288674726E+00
(PID.TID 0000.0001) %MON dynstat_sst_mean             =  -1.2382421941514E+00
(PID.TID 0000.0001) %MON dynstat_sst_sd               =   1.4419509676219E+00
(PID.TID 0000.0001) %MON dynstat_sst_del2             =   3.0267435330466E-02
(PID.TID 0000.0001) %MON dynstat_sss_max              =   3.2707402452168E+01
(PID.TID 0000.0001) %MON dynstat_sss_min              =   2.7643550512942E+01
(PID.TID 0000.0001) %MON dynstat_sss_mean             =   3.1229267874214E+01
(PID.TID 0000.0001) %MON dynstat_sss_sd               =   1.1620345861814E+00
(PID.TID 0000.0001) %MON dynstat_sss_del2             =   2.2275879831966E-02
(PID.TID 0000.0001) %MON forcing_qnet_max             =   1.9658046915779E+02
(PID.TID 0000.0001) %MON forcing_qnet_min             =  -4.8459507808829E+01
(PID.TID 0000.0001) %MON forcing_qnet_mean            =   3.1510623977833E+01
(PID.TID 0000.0001) %MON forcing_qnet_sd              =   4.3523137285783E+01
(PID.TID 0000.0001) %MON forcing_qnet_del2            =   2.3457804916592E+00
(PID.TID 0000.0001) %MON forcing_qsw_max              =   0.0000000000000E+00
(PID.TID 0000.0001) %MON forcing_qsw_min              =  -6.4124076818247E+01
(PID.TID 0000.0001) %MON forcing_qsw_mean             =  -1.6538772999525E+01
(PID.TID 0000.0001) %MON forcing_qsw_sd               =   2.3079398184255E+01
(PID.TID 0000.0001) %MON forcing_qsw_del2             =   1.0606430119820E+00
(PID.TID 0000.0001) %MON forcing_empmr_max            =   1.5200685104672E-04
(PID.TID 0000.0001) %MON forcing_empmr_min            =  -3.5644307557270E-04
(PID.TID 0000.0001) %MON forcing_empmr_mean           =  -5.4585516065949E-05
(PID.TID 0000.0001) %MON forcing_empmr_sd             =   1.0475651721525E-04
(PID.TID 0000.0001) %MON forcing_empmr_del2           =   6.5493756264783E-06
(PID.TID 0000.0001) %MON forcing_fu_max               =   8.1683204698334E-02
(PID.TID 0000.0001) %MON forcing_fu_min               =  -6.3453699230790E-03
(PID.TID 0000.0001) %MON forcing_fu_mean              =   2.5451676178502E-02
(PID.TID 0000.0001) %MON forcing_fu_sd                =   2.3120195119676E-02
(PID.TID 0000.0001) %MON forcing_fu_del2              =   1.1254982826204E-03
(PID.TID 0000.0001) %MON forcing_fv_max               =   1.0450747045727E-02
(PID.TID 0000.0001) %MON forcing_fv_min               =  -6.1756631898638E-02
(PID.TID 0000.0001) %MON forcing_fv_mean              =  -8.7452218044928E-03
(PID.TID 0000.0001) %MON forcing_fv_sd                =   1.5351676283898E-02
(PID.TID 0000.0001) %MON forcing_fv_del2              =   6.8247998399314E-04
(PID.TID 0000.0001) %MON trAdv_CFL_u_max              =   2.1835296180193E-03
(PID.TID 0000.0001) %MON trAdv_CFL_v_max              =   2.1420857476212E-03
(PID.TID 0000.0001) %MON trAdv_CFL_w_max              =   7.8395571939573E-03
(PID.TID 0000.0001) %MON advcfl_uvel_max              =   2.1834187628480E-03
(PID.TID 0000.0001) %MON advcfl_vvel_max              =   2.0938031489808E-03
(PID.TID 0000.0001) %MON advcfl_wvel_max              =   6.6863139454564E-03
(PID.TID 0000.0001) %MON advcfl_W_hf_max              =   7.8395571939573E-03
(PID.TID 0000.0001) %MON pe_b_mean                    =   1.6169681487088E-05
(PID.TID 0000.0001) %MON ke_max                       =   8.3228977507934E-03
(PID.TID 0000.0001) %MON ke_mean                      =   4.7497261540569E-05
(PID.TID 0000.0001) %MON ke_vol                       =   5.3036189546438E+15
(PID.TID 0000.0001) %MON vort_r_min                   =  -7.5996985701398E-07
(PID.TID 0000.0001) %MON vort_r_max                   =   4.1741207452654E-07
(PID.TID 0000.0001) %MON vort_a_mean                  =   1.2067277437000E-04
(PID.TID 0000.0001) %MON vort_a_sd                    =   8.8116965136181E-06
(PID.TID 0000.0001) %MON vort_p_mean                  =   1.7734842926373E-04
(PID.TID 0000.0001) %MON vort_p_sd                    =   1.1689427236985E-04
(PID.TID 0000.0001) %MON surfExpan_theta_mean         =  -8.2961216616245E-07
(PID.TID 0000.0001) %MON surfExpan_salt_mean          =   4.2377761396349E-07
(PID.TID 0000.0001) // =======================================================
(PID.TID 0000.0001) // End MONITOR dynamic field statistics
(PID.TID 0000.0001) // =======================================================
(PID.TID 0000.0001)  MDS_WRITE_FIELD: it,rec,kS,kL,kH=       9     1  23   1  23 file=U.0000000009
(PID.TID 0000.0001)  MDS_WRITE_FIELD: it,rec,kS,kL,kH=       9     1  23   1  23 file=V.0000000009
(PID.TID 0000.0001)  MDS_WRITE_FIELD: it,rec,kS,kL,kH=       9     1  23   1  23 file=T.0000000009
(PID.TID 0000.0001)  MDS_WRITE_FIELD: it,rec,kS,kL,kH=       9     1  23   1  23 file=S.0000000009
(PID.TID 0000.0001)  MDS_WRITE_FIELD: it,rec,kS,kL,kH=       9     1   1   1   1 file=Eta.0000000009
(PID.TID 0000.0001)  MDS_WRITE_FIELD: it,rec,kS,kL,kH=       9     1  23   1  23 file=W.0000000009
(PID.TID 0000.0001)  MDS_WRITE_FIELD: it,rec,kS,kL,kH=       9     1  23   1  23 file=PH.0000000009
(PID.TID 0000.0001)  MDS_WRITE_FIELD: it,rec,kS,kL,kH=       9     1   1   1   1 file=PHL.0000000009
(PID.TID 0000.0001)  MDS_WRITE_FIELD: it,rec,kS,kL,kH=       9     1   1   1   1 file=UWIND.0000000009
(PID.TID 0000.0001)  MDS_WRITE_FIELD: it,rec,kS,kL,kH=       9     1   1   1   1 file=VWIND.0000000009
(PID.TID 0000.0001)  MDS_WRITE_FIELD: it,rec,kS,kL,kH=       9     1   1   1   1 file=FU.0000000009
(PID.TID 0000.0001)  MDS_WRITE_FIELD: it,rec,kS,kL,kH=       9     1   1   1   1 file=FV.0000000009
(PID.TID 0000.0001)  MDS_WRITE_FIELD: it,rec,kS,kL,kH=       9     1   1   1   1 file=EmPmR.0000000009
(PID.TID 0000.0001)  MDS_WRITE_FIELD: it,rec,kS,kL,kH=       9     1   1   1   1 file=Qnet.0000000009
(PID.TID 0000.0001)  MDS_WRITE_FIELD: it,rec,kS,kL,kH=       9     1   1   1   1 file=Qsw.0000000009
(PID.TID 0000.0001)  MDS_WRITE_FIELD: it,rec,kS,kL,kH=       9     1   1   1   1 file=UICE.0000000009
(PID.TID 0000.0001)  MDS_WRITE_FIELD: it,rec,kS,kL,kH=       9     1   1   1   1 file=VICE.0000000009
(PID.TID 0000.0001)  MDS_WRITE_FIELD: it,rec,kS,kL,kH=       9     1   1   1   1 file=HEFF.0000000009
(PID.TID 0000.0001)  MDS_WRITE_FIELD: it,rec,kS,kL,kH=       9     1   1   1   1 file=AREA.0000000009
(PID.TID 0000.0001)  MDS_WRITE_FIELD: it,rec,kS,kL,kH=       9     1   1   1   1 file=HSNOW.0000000009
(PID.TID 0000.0001)  MDS_WRITE_FIELD: it,rec,kS,kL,kH=       9     1   1   1   1 file=HSALT.0000000009
(PID.TID 0000.0001) // =======================================================
(PID.TID 0000.0001) // Begin MONITOR SEAICE statistics
(PID.TID 0000.0001) // =======================================================
(PID.TID 0000.0001) %MON seaice_tsnumber              =                     9
(PID.TID 0000.0001) %MON seaice_time_sec              =   3.2400000000000E+04
(PID.TID 0000.0001) %MON seaice_uice_max              =   2.5133043292286E-01
(PID.TID 0000.0001) %MON seaice_uice_min              =  -2.4066288354912E-02
(PID.TID 0000.0001) %MON seaice_uice_mean             =   7.0209084457429E-02
(PID.TID 0000.0001) %MON seaice_uice_sd               =   7.0396237430225E-02
(PID.TID 0000.0001) %MON seaice_uice_del2             =   2.0779295835171E-03
(PID.TID 0000.0001) %MON seaice_vice_max              =   4.2149991387824E-02
(PID.TID 0000.0001) %MON seaice_vice_min              =  -1.7126290763054E-01
(PID.TID 0000.0001) %MON seaice_vice_mean             =  -5.8209309319046E-02
(PID.TID 0000.0001) %MON seaice_vice_sd               =   5.8085411338029E-02
(PID.TID 0000.0001) %MON seaice_vice_del2             =   2.1110240181248E-03
(PID.TID 0000.0001) %MON seaice_area_max              =   1.0000000000000E+00
(PID.TID 0000.0001) %MON seaice_area_min              =   0.0000000000000E+00
(PID.TID 0000.0001) %MON seaice_area_mean             =   6.3210939805344E-01
(PID.TID 0000.0001) %MON seaice_area_sd               =   4.8043699221634E-01
(PID.TID 0000.0001) %MON seaice_area_del2             =   2.9766525499962E-02
(PID.TID 0000.0001) %MON seaice_heff_max              =   5.7023318347255E-01
(PID.TID 0000.0001) %MON seaice_heff_min              =   0.0000000000000E+00
(PID.TID 0000.0001) %MON seaice_heff_mean             =   1.7781697982522E-01
(PID.TID 0000.0001) %MON seaice_heff_sd               =   1.8406434980022E-01
(PID.TID 0000.0001) %MON seaice_heff_del2             =   3.9868308272624E-03
(PID.TID 0000.0001) %MON seaice_hsnow_max             =   1.9969561281012E-01
(PID.TID 0000.0001) %MON seaice_hsnow_min             =   0.0000000000000E+00
(PID.TID 0000.0001) %MON seaice_hsnow_mean            =   6.3005665392930E-02
(PID.TID 0000.0001) %MON seaice_hsnow_sd              =   6.5202668397442E-02
(PID.TID 0000.0001) %MON seaice_hsnow_del2            =   1.4158239501955E-03
(PID.TID 0000.0001) %MON seaice_hsalt_max             =   5.0523850047316E+03
(PID.TID 0000.0001) %MON seaice_hsalt_min             =   0.0000000000000E+00
(PID.TID 0000.0001) %MON seaice_hsalt_mean            =   1.4620283036185E+03
(PID.TID 0000.0001) %MON seaice_hsalt_sd              =   1.5950961918441E+03
(PID.TID 0000.0001) %MON seaice_hsalt_del2            =   3.6050878693178E+01
(PID.TID 0000.0001) // =======================================================
(PID.TID 0000.0001) // End MONITOR SEAICE statistics
(PID.TID 0000.0001) // =======================================================
 Computing Diagnostic #     23  ETAN         Counter:       1   Parms: SM      M1      
(PID.TID 0000.0001)  MDS_WRITE_FIELD: it,rec,kS,kL,kH=       9    -1  46   1   1 file=diags/state_2d_set1.0000000009
 Computing Diagnostic #    294  SIarea       Counter:       1   Parms: SM      M1      
(PID.TID 0000.0001)  MDS_WRITE_FIELD: it,rec,kS,kL,kH=       9    -2  46   1   1 file=diags/state_2d_set1.0000000009
 Computing Diagnostic #    297  SIheff       Counter:       1   Parms: SM      M1      
(PID.TID 0000.0001)  MDS_WRITE_FIELD: it,rec,kS,kL,kH=       9    -3  46   1   1 file=diags/state_2d_set1.0000000009
 Computing Diagnostic #    299  SIhsnow      Counter:       1   Parms: SM      M1      
(PID.TID 0000.0001)  MDS_WRITE_FIELD: it,rec,kS,kL,kH=       9    -4  46   1   1 file=diags/state_2d_set1.0000000009
 Computing Diagnostic #     25  DETADT2      Counter:       1   Parms: SM      M1      
(PID.TID 0000.0001)  MDS_WRITE_FIELD: it,rec,kS,kL,kH=       9    -5  46   1   1 file=diags/state_2d_set1.0000000009
 Computing Diagnostic #     73  PHIBOT       Counter:       1   Parms: SM      M1      
(PID.TID 0000.0001)  MDS_WRITE_FIELD: it,rec,kS,kL,kH=       9    -6  46   1   1 file=diags/state_2d_set1.0000000009
 Computing Diagnostic #     82  sIceLoad     Counter:       1   Parms: SM      U1      
(PID.TID 0000.0001)  MDS_WRITE_FIELD: it,rec,kS,kL,kH=       9    -7  46   1   1 file=diags/state_2d_set1.0000000009
 Computing Diagnostic #     76  MXLDEPTH     Counter:       1   Parms: SM      M1      
(PID.TID 0000.0001)  MDS_WRITE_FIELD: it,rec,kS,kL,kH=       9    -8  46   1   1 file=diags/state_2d_set1.0000000009
 Computing Diagnostic #    325  SIatmFW      Counter:       1   Parms: SM      U1      
(PID.TID 0000.0001)  MDS_WRITE_FIELD: it,rec,kS,kL,kH=       9    -9  46   1   1 file=diags/state_2d_set1.0000000009
 Computing Diagnostic #     85  oceQnet      Counter:       1   Parms: SM      U1      
(PID.TID 0000.0001)  MDS_WRITE_FIELD: it,rec,kS,kL,kH=       9   -10  46   1   1 file=diags/state_2d_set1.0000000009
 Computing Diagnostic #     83  oceFWflx     Counter:       1   Parms: SM      U1      
(PID.TID 0000.0001)  MDS_WRITE_FIELD: it,rec,kS,kL,kH=       9   -11  46   1   1 file=diags/state_2d_set1.0000000009
 Computing Diagnostic #     79  oceTAUX      Counter:       1   Parms: UU      U1      
           Vector  Mate for  oceTAUX      Diagnostic #     80  oceTAUY  exists 
(PID.TID 0000.0001)  MDS_WRITE_FIELD: it,rec,kS,kL,kH=       9   -12  46   1   1 file=diags/state_2d_set1.0000000009
 Computing Diagnostic #     80  oceTAUY      Counter:       1   Parms: VV      U1      
           Vector  Mate for  oceTAUY      Diagnostic #     79  oceTAUX  exists 
(PID.TID 0000.0001)  MDS_WRITE_FIELD: it,rec,kS,kL,kH=       9   -13  46   1   1 file=diags/state_2d_set1.0000000009
 Computing Diagnostic #    311  SIuice       Counter:       1   Parms: UU      M1      
           Vector  Mate for  SIuice       Diagnostic #    312  SIvice   exists 
(PID.TID 0000.0001)  MDS_WRITE_FIELD: it,rec,kS,kL,kH=       9   -14  46   1   1 file=diags/state_2d_set1.0000000009
 Computing Diagnostic #    312  SIvice       Counter:       1   Parms: VV      M1      
           Vector  Mate for  SIvice       Diagnostic #    311  SIuice   exists 
(PID.TID 0000.0001)  MDS_WRITE_FIELD: it,rec,kS,kL,kH=       9   -15  46   1   1 file=diags/state_2d_set1.0000000009
 Computing Diagnostic #     24  ETANSQ       Counter:       1   Parms: SM P    M1      
(PID.TID 0000.0001)  MDS_WRITE_FIELD: it,rec,kS,kL,kH=       9   -16  46   1   1 file=diags/state_2d_set1.0000000009
 Computing Diagnostic #     26  THETA        Counter:       1   Parms: SMR     MR      
(PID.TID 0000.0001)  MDS_WRITE_FIELD: it,rec,kS,kL,kH=       9    -1  46   1  23 file=diags/state_3d_set1.0000000009
 Computing Diagnostic #     27  SALT         Counter:       1   Parms: SMR     MR      
(PID.TID 0000.0001)  MDS_WRITE_FIELD: it,rec,kS,kL,kH=       9    -2  46   1  23 file=diags/state_3d_set1.0000000009
 Computing Diagnostic #     45  UVELMASS     Counter:       1   Parms: UUr     MR      
           Vector  Mate for  UVELMASS     Diagnostic #     46  VVELMASS exists 
(PID.TID 0000.0001)  MDS_WRITE_FIELD: it,rec,kS,kL,kH=       9    -1  46   1  23 file=diags/trsp_3d_set1.0000000009
 Computing Diagnostic #     46  VVELMASS     Counter:       1   Parms: VVr     MR      
           Vector  Mate for  VVELMASS     Diagnostic #     45  UVELMASS exists 
(PID.TID 0000.0001)  MDS_WRITE_FIELD: it,rec,kS,kL,kH=       9    -2  46   1  23 file=diags/trsp_3d_set1.0000000009
 Computing Diagnostic #    224  EXFpreci     Counter:       1   Parms: SM      U1      
(PID.TID 0000.0001)  MDS_WRITE_FIELD: it,rec,kS,kL,kH=       9    -1  46   1   1 file=diags/exf_zflux_set1.0000000009
 Computing Diagnostic #    223  EXFevap      Counter:       1   Parms: SM      U1      
(PID.TID 0000.0001)  MDS_WRITE_FIELD: it,rec,kS,kL,kH=       9    -2  46   1   1 file=diags/exf_zflux_set1.0000000009
 Computing Diagnostic #    228  EXFroff      Counter:       1   Parms: SM      U1      
(PID.TID 0000.0001)  MDS_WRITE_FIELD: it,rec,kS,kL,kH=       9    -3  46   1   1 file=diags/exf_zflux_set1.0000000009
 Computing Diagnostic #    226  EXFempmr     Counter:       1   Parms: SM      U1      
(PID.TID 0000.0001)  MDS_WRITE_FIELD: it,rec,kS,kL,kH=       9    -4  46   1   1 file=diags/exf_zflux_set1.0000000009
 Computing Diagnostic #    212  EXFswdn      Counter:       1   Parms: SM      U1      
(PID.TID 0000.0001)  MDS_WRITE_FIELD: it,rec,kS,kL,kH=       9    -5  46   1   1 file=diags/exf_zflux_set1.0000000009
 Computing Diagnostic #    211  EXFlwdn      Counter:       1   Parms: SM      U1      
(PID.TID 0000.0001)  MDS_WRITE_FIELD: it,rec,kS,kL,kH=       9    -6  46   1   1 file=diags/exf_zflux_set1.0000000009
 Computing Diagnostic #    210  EXFswnet     Counter:       1   Parms: SM      U1      
(PID.TID 0000.0001)  MDS_WRITE_FIELD: it,rec,kS,kL,kH=       9    -7  46   1   1 file=diags/exf_zflux_set1.0000000009
 Computing Diagnostic #    209  EXFlwnet     Counter:       1   Parms: SM      U1      
(PID.TID 0000.0001)  MDS_WRITE_FIELD: it,rec,kS,kL,kH=       9    -8  46   1   1 file=diags/exf_zflux_set1.0000000009
 Computing Diagnostic #    213  EXFqnet      Counter:       1   Parms: SM      U1      
(PID.TID 0000.0001)  MDS_WRITE_FIELD: it,rec,kS,kL,kH=       9    -9  46   1   1 file=diags/exf_zflux_set1.0000000009
 Computing Diagnostic #    221  EXFatemp     Counter:       1   Parms: SM      U1      
(PID.TID 0000.0001)  MDS_WRITE_FIELD: it,rec,kS,kL,kH=       9   -10  46   1   1 file=diags/exf_zflux_set1.0000000009
 Computing Diagnostic #    222  EXFaqh       Counter:       1   Parms: SM      U1      
(PID.TID 0000.0001)  MDS_WRITE_FIELD: it,rec,kS,kL,kH=       9   -11  46   1   1 file=diags/exf_zflux_set1.0000000009
 Computing Diagnostic #    214  EXFtaux      Counter:       1   Parms: UM      U1      
(PID.TID 0000.0001)  MDS_WRITE_FIELD: it,rec,kS,kL,kH=       9   -12  46   1   1 file=diags/exf_zflux_set1.0000000009
 Computing Diagnostic #    215  EXFtauy      Counter:       1   Parms: VM      U1      
(PID.TID 0000.0001)  MDS_WRITE_FIELD: it,rec,kS,kL,kH=       9   -13  46   1   1 file=diags/exf_zflux_set1.0000000009
 Computing Diagnostic #    216  EXFuwind     Counter:       1   Parms: UM      U1      
(PID.TID 0000.0001)  MDS_WRITE_FIELD: it,rec,kS,kL,kH=       9   -14  46   1   1 file=diags/exf_zflux_set1.0000000009
 Computing Diagnostic #    217  EXFvwind     Counter:       1   Parms: VM      U1      
(PID.TID 0000.0001)  MDS_WRITE_FIELD: it,rec,kS,kL,kH=       9   -15  46   1   1 file=diags/exf_zflux_set1.0000000009
 Computing Diagnostic #    227  EXFpress     Counter:       1   Parms: SM      U1      
(PID.TID 0000.0001)  MDS_WRITE_FIELD: it,rec,kS,kL,kH=       9   -16  46   1   1 file=diags/exf_zflux_set1.0000000009
 Computing Diagnostic #    207  EXFhs        Counter:       1   Parms: SM      U1      
(PID.TID 0000.0001)  MDS_WRITE_FIELD: it,rec,kS,kL,kH=       9   -17  46   1   1 file=diags/exf_zflux_set1.0000000009
 Computing Diagnostic #    208  EXFhl        Counter:       1   Parms: SM      U1      
(PID.TID 0000.0001)  MDS_WRITE_FIELD: it,rec,kS,kL,kH=       9   -18  46   1   1 file=diags/exf_zflux_set1.0000000009
(PID.TID 0000.0001)  write diagnostics summary to file: diagnostics_status.0000000009.txt
(PID.TID 0000.0001)  MDS_WRITE_FIELD: it,rec,kS,kL,kH=       9     1  23   1  23 file=pickup_cd.0000000009
(PID.TID 0000.0001)  MDS_WRITE_FIELD: it,rec,kS,kL,kH=       9     2  23   1  23 file=pickup_cd.0000000009
(PID.TID 0000.0001)  MDS_WRITE_FIELD: it,rec,kS,kL,kH=       9     3  23   1  23 file=pickup_cd.0000000009
(PID.TID 0000.0001)  MDS_WRITE_FIELD: it,rec,kS,kL,kH=       9     4  23   1  23 file=pickup_cd.0000000009
(PID.TID 0000.0001)  MDS_WRITE_FIELD: it,rec,kS,kL,kH=       9    93   1   1   1 file=pickup_cd.0000000009
(PID.TID 0000.0001)  MDS_WRITE_FIELD: it,rec,kS,kL,kH=       9    -1   7   1   7 file=pickup_seaice.0000000009
(PID.TID 0000.0001)  MDS_WRITE_FIELD: it,rec,kS,kL,kH=       9    -8   1   1   1 file=pickup_seaice.0000000009
(PID.TID 0000.0001)  MDS_WRITE_FIELD: it,rec,kS,kL,kH=       9    -9   1   1   1 file=pickup_seaice.0000000009
(PID.TID 0000.0001)  MDS_WRITE_FIELD: it,rec,kS,kL,kH=       9   -10   1   1   1 file=pickup_seaice.0000000009
(PID.TID 0000.0001)  MDS_WRITE_FIELD: it,rec,kS,kL,kH=       9   -11   1   1   1 file=pickup_seaice.0000000009
(PID.TID 0000.0001)  MDS_WRITE_FIELD: it,rec,kS,kL,kH=       9   -12   1   1   1 file=pickup_seaice.0000000009
(PID.TID 0000.0001)  MDS_WRITE_FIELD: it,rec,kS,kL,kH=       9   -13   1   1   1 file=pickup_seaice.0000000009
(PID.TID 0000.0001)  MDS_WRITE_FIELD: it,rec,kS,kL,kH=       9    -1  23   1  23 file=pickup.0000000009
(PID.TID 0000.0001)  MDS_WRITE_FIELD: it,rec,kS,kL,kH=       9    -2  23   1  23 file=pickup.0000000009
(PID.TID 0000.0001)  MDS_WRITE_FIELD: it,rec,kS,kL,kH=       9    -3  23   1  23 file=pickup.0000000009
(PID.TID 0000.0001)  MDS_WRITE_FIELD: it,rec,kS,kL,kH=       9    -4  23   1  23 file=pickup.0000000009
(PID.TID 0000.0001)  MDS_WRITE_FIELD: it,rec,kS,kL,kH=       9    -5  23   1  23 file=pickup.0000000009
(PID.TID 0000.0001)  MDS_WRITE_FIELD: it,rec,kS,kL,kH=       9    -6  23   1  23 file=pickup.0000000009
(PID.TID 0000.0001)  MDS_WRITE_FIELD: it,rec,kS,kL,kH=       9  -139   1   1   1 file=pickup.0000000009
(PID.TID 0000.0001)  MDS_WRITE_FIELD: it,rec,kS,kL,kH=       9  -140   1   1   1 file=pickup.0000000009
(PID.TID 0000.0001)  MDS_WRITE_FIELD: it,rec,kS,kL,kH=       9  -141   1   1   1 file=pickup.0000000009
(PID.TID 0000.0001) %CHECKPOINT         9 0000000009
(PID.TID 0000.0001)  MDS_WRITE_FIELD: it,rec,kS,kL,kH=       1    10   1   1   1 file=m_sst_step.0000000001
(PID.TID 0000.0001) gencost # 03
(PID.TID 0000.0001)  MDS_READ_FIELD: opening global file: sigma_sst.bin
(PID.TID 0000.0001)  MDS_READ_FIELD: opening global file: m_sst_step.0000000001.data
(PID.TID 0000.0001)  MDS_READ_FIELD: opening global file: labsea_SST_fields_t10
(PID.TID 0000.0001)  MDS_WRITE_FIELD: it,rec,kS,kL,kH=       1     1   1   1   1 file=misfit_sst
(PID.TID 0000.0001)  MDS_READ_FIELD: opening global file: sigma_sst.bin
(PID.TID 0000.0001)  MDS_READ_FIELD: opening global file: m_sst_step.0000000001.data
(PID.TID 0000.0001)  MDS_READ_FIELD: opening global file: labsea_SST_fields_t10
(PID.TID 0000.0001)  MDS_WRITE_FIELD: it,rec,kS,kL,kH=       1     2   1   1   1 file=misfit_sst
(PID.TID 0000.0001)  MDS_READ_FIELD: opening global file: sigma_sst.bin
(PID.TID 0000.0001)  MDS_READ_FIELD: opening global file: m_sst_step.0000000001.data
(PID.TID 0000.0001)  MDS_READ_FIELD: opening global file: labsea_SST_fields_t10
(PID.TID 0000.0001)  MDS_WRITE_FIELD: it,rec,kS,kL,kH=       1     3   1   1   1 file=misfit_sst
(PID.TID 0000.0001)  MDS_READ_FIELD: opening global file: sigma_sst.bin
(PID.TID 0000.0001)  MDS_READ_FIELD: opening global file: m_sst_step.0000000001.data
(PID.TID 0000.0001)  MDS_READ_FIELD: opening global file: labsea_SST_fields_t10
(PID.TID 0000.0001)  MDS_WRITE_FIELD: it,rec,kS,kL,kH=       1     4   1   1   1 file=misfit_sst
(PID.TID 0000.0001)  MDS_READ_FIELD: opening global file: sigma_sst.bin
(PID.TID 0000.0001)  MDS_READ_FIELD: opening global file: m_sst_step.0000000001.data
(PID.TID 0000.0001)  MDS_READ_FIELD: opening global file: labsea_SST_fields_t10
(PID.TID 0000.0001)  MDS_WRITE_FIELD: it,rec,kS,kL,kH=       1     5   1   1   1 file=misfit_sst
(PID.TID 0000.0001)  MDS_READ_FIELD: opening global file: sigma_sst.bin
(PID.TID 0000.0001)  MDS_READ_FIELD: opening global file: m_sst_step.0000000001.data
(PID.TID 0000.0001)  MDS_READ_FIELD: opening global file: labsea_SST_fields_t10
(PID.TID 0000.0001)  MDS_WRITE_FIELD: it,rec,kS,kL,kH=       1     6   1   1   1 file=misfit_sst
(PID.TID 0000.0001)  MDS_READ_FIELD: opening global file: sigma_sst.bin
(PID.TID 0000.0001)  MDS_READ_FIELD: opening global file: m_sst_step.0000000001.data
(PID.TID 0000.0001)  MDS_READ_FIELD: opening global file: labsea_SST_fields_t10
(PID.TID 0000.0001)  MDS_WRITE_FIELD: it,rec,kS,kL,kH=       1     7   1   1   1 file=misfit_sst
(PID.TID 0000.0001)  MDS_READ_FIELD: opening global file: sigma_sst.bin
(PID.TID 0000.0001)  MDS_READ_FIELD: opening global file: m_sst_step.0000000001.data
(PID.TID 0000.0001)  MDS_READ_FIELD: opening global file: labsea_SST_fields_t10
(PID.TID 0000.0001)  MDS_WRITE_FIELD: it,rec,kS,kL,kH=       1     8   1   1   1 file=misfit_sst
(PID.TID 0000.0001)  MDS_READ_FIELD: opening global file: sigma_sst.bin
(PID.TID 0000.0001)  MDS_READ_FIELD: opening global file: m_sst_step.0000000001.data
(PID.TID 0000.0001)  MDS_READ_FIELD: opening global file: labsea_SST_fields_t10
(PID.TID 0000.0001)  MDS_WRITE_FIELD: it,rec,kS,kL,kH=       1     9   1   1   1 file=misfit_sst
(PID.TID 0000.0001)  MDS_READ_FIELD: opening global file: sigma_sst.bin
(PID.TID 0000.0001)  MDS_READ_FIELD: opening global file: m_sst_step.0000000001.data
(PID.TID 0000.0001)  MDS_READ_FIELD: opening global file: labsea_SST_fields_t10
(PID.TID 0000.0001)  MDS_WRITE_FIELD: it,rec,kS,kL,kH=       1    10   1   1   1 file=misfit_sst
(PID.TID 0000.0001)  MDS_READ_FIELD: opening global file: xx_atemp.0000000001.data
(PID.TID 0000.0001)  MDS_READ_FIELD: opening global file: xx_atemp.0000000001.data
(PID.TID 0000.0001)  MDS_READ_FIELD: opening global file: xx_atemp.0000000001.data
(PID.TID 0000.0001)  MDS_READ_FIELD: opening global file: xx_atemp.0000000001.data
(PID.TID 0000.0001)  MDS_READ_FIELD: opening global file: xx_atemp.0000000001.data
(PID.TID 0000.0001)  MDS_READ_FIELD: opening global file: xx_atemp.0000000001.data
(PID.TID 0000.0001)  MDS_READ_FIELD: opening global file: xx_atemp.0000000001.data
(PID.TID 0000.0001)  MDS_READ_FIELD: opening global file: xx_atemp.0000000001.data
(PID.TID 0000.0001)  MDS_READ_FIELD: opening global file: xx_atemp.0000000001.data
(PID.TID 0000.0001)  MDS_READ_FIELD: opening global file: xx_atemp.0000000001.data
(PID.TID 0000.0001)  MDS_READ_FIELD: opening global file: xx_atemp.0000000001.data
 --> f_ice     = 0.000000000000000D+00
 --> f_smrarea = 0.000000000000000D+00
 --> f_smrarea = 0.000000000000000D+00
 --> f_smrarea = 0.000000000000000D+00
(PID.TID 0000.0001)  --> f_gencost = 0.527453128215446D+04 3
(PID.TID 0000.0001)  --> f_gentim2d = 0.243375000000000D+03 1
(PID.TID 0000.0001)  --> fc               = 0.527453128215446D+04
(PID.TID 0000.0001)  cost_Final: final cost function =  0.527453128215446D+04
(PID.TID 0000.0001) 
(PID.TID 0000.0001)              cost function evaluation finished.
(PID.TID 0000.0001) 
(PID.TID 0000.0001)   early fc =  0.000000000000000D+00
(PID.TID 0000.0001)   local fc =  0.527453128215446D+04
(PID.TID 0000.0001)  global fc =  0.527453128215446D+04
(PID.TID 0000.0001)  MDS_READ_FIELD: opening global file: xx_atemp.0000000001.data
(PID.TID 0000.0001)  MDS_READ_FIELD: opening global file: adxx_atemp.0000000001.data
(PID.TID 0000.0001)  MDS_WRITE_FIELD: it,rec,kS,kL,kH=       1   -11  23   1   1 file=adxx_atemp.0000000001
(PID.TID 0000.0001)  MDS_READ_FIELD: opening global file: xx_atemp.0000000001.data
(PID.TID 0000.0001)  MDS_READ_FIELD: opening global file: adxx_atemp.0000000001.data
(PID.TID 0000.0001)  MDS_WRITE_FIELD: it,rec,kS,kL,kH=       1   -10  23   1   1 file=adxx_atemp.0000000001
(PID.TID 0000.0001)  MDS_READ_FIELD: opening global file: xx_atemp.0000000001.data
(PID.TID 0000.0001)  MDS_READ_FIELD: opening global file: adxx_atemp.0000000001.data
(PID.TID 0000.0001)  MDS_WRITE_FIELD: it,rec,kS,kL,kH=       1    -9  23   1   1 file=adxx_atemp.0000000001
(PID.TID 0000.0001)  MDS_READ_FIELD: opening global file: xx_atemp.0000000001.data
(PID.TID 0000.0001)  MDS_READ_FIELD: opening global file: adxx_atemp.0000000001.data
(PID.TID 0000.0001)  MDS_WRITE_FIELD: it,rec,kS,kL,kH=       1    -8  23   1   1 file=adxx_atemp.0000000001
(PID.TID 0000.0001)  MDS_READ_FIELD: opening global file: xx_atemp.0000000001.data
(PID.TID 0000.0001)  MDS_READ_FIELD: opening global file: adxx_atemp.0000000001.data
(PID.TID 0000.0001)  MDS_WRITE_FIELD: it,rec,kS,kL,kH=       1    -7  23   1   1 file=adxx_atemp.0000000001
(PID.TID 0000.0001)  MDS_READ_FIELD: opening global file: xx_atemp.0000000001.data
(PID.TID 0000.0001)  MDS_READ_FIELD: opening global file: adxx_atemp.0000000001.data
(PID.TID 0000.0001)  MDS_WRITE_FIELD: it,rec,kS,kL,kH=       1    -6  23   1   1 file=adxx_atemp.0000000001
(PID.TID 0000.0001)  MDS_READ_FIELD: opening global file: xx_atemp.0000000001.data
(PID.TID 0000.0001)  MDS_READ_FIELD: opening global file: adxx_atemp.0000000001.data
(PID.TID 0000.0001)  MDS_WRITE_FIELD: it,rec,kS,kL,kH=       1    -5  23   1   1 file=adxx_atemp.0000000001
(PID.TID 0000.0001)  MDS_READ_FIELD: opening global file: xx_atemp.0000000001.data
(PID.TID 0000.0001)  MDS_READ_FIELD: opening global file: adxx_atemp.0000000001.data
(PID.TID 0000.0001)  MDS_WRITE_FIELD: it,rec,kS,kL,kH=       1    -4  23   1   1 file=adxx_atemp.0000000001
(PID.TID 0000.0001)  MDS_READ_FIELD: opening global file: xx_atemp.0000000001.data
(PID.TID 0000.0001)  MDS_READ_FIELD: opening global file: adxx_atemp.0000000001.data
(PID.TID 0000.0001)  MDS_WRITE_FIELD: it,rec,kS,kL,kH=       1    -3  23   1   1 file=adxx_atemp.0000000001
(PID.TID 0000.0001)  MDS_READ_FIELD: opening global file: xx_atemp.0000000001.data
(PID.TID 0000.0001)  MDS_READ_FIELD: opening global file: adxx_atemp.0000000001.data
(PID.TID 0000.0001)  MDS_WRITE_FIELD: it,rec,kS,kL,kH=       1    -2  23   1   1 file=adxx_atemp.0000000001
(PID.TID 0000.0001)  MDS_READ_FIELD: opening global file: xx_atemp.0000000001.data
(PID.TID 0000.0001)  MDS_READ_FIELD: opening global file: adxx_atemp.0000000001.data
(PID.TID 0000.0001)  MDS_WRITE_FIELD: it,rec,kS,kL,kH=       1    -1  23   1   1 file=adxx_atemp.0000000001
(PID.TID 0000.0001)  MDS_READ_FIELD: opening global file: sigma_sst.bin
(PID.TID 0000.0001)  MDS_READ_FIELD: opening global file: m_sst_step.0000000001.data
(PID.TID 0000.0001)  MDS_READ_FIELD: opening global file: labsea_SST_fields_t10
(PID.TID 0000.0001)  MDS_READ_FIELD: opening global file: sigma_sst.bin
(PID.TID 0000.0001)  MDS_READ_FIELD: opening global file: m_sst_step.0000000001.data
(PID.TID 0000.0001)  MDS_READ_FIELD: opening global file: labsea_SST_fields_t10
(PID.TID 0000.0001)  MDS_READ_FIELD: opening global file: sigma_sst.bin
(PID.TID 0000.0001)  MDS_READ_FIELD: opening global file: m_sst_step.0000000001.data
(PID.TID 0000.0001)  MDS_READ_FIELD: opening global file: labsea_SST_fields_t10
(PID.TID 0000.0001)  MDS_READ_FIELD: opening global file: sigma_sst.bin
(PID.TID 0000.0001)  MDS_READ_FIELD: opening global file: m_sst_step.0000000001.data
(PID.TID 0000.0001)  MDS_READ_FIELD: opening global file: labsea_SST_fields_t10
(PID.TID 0000.0001)  MDS_READ_FIELD: opening global file: sigma_sst.bin
(PID.TID 0000.0001)  MDS_READ_FIELD: opening global file: m_sst_step.0000000001.data
(PID.TID 0000.0001)  MDS_READ_FIELD: opening global file: labsea_SST_fields_t10
(PID.TID 0000.0001)  MDS_READ_FIELD: opening global file: sigma_sst.bin
(PID.TID 0000.0001)  MDS_READ_FIELD: opening global file: m_sst_step.0000000001.data
(PID.TID 0000.0001)  MDS_READ_FIELD: opening global file: labsea_SST_fields_t10
(PID.TID 0000.0001)  MDS_READ_FIELD: opening global file: sigma_sst.bin
(PID.TID 0000.0001)  MDS_READ_FIELD: opening global file: m_sst_step.0000000001.data
(PID.TID 0000.0001)  MDS_READ_FIELD: opening global file: labsea_SST_fields_t10
(PID.TID 0000.0001)  MDS_READ_FIELD: opening global file: sigma_sst.bin
(PID.TID 0000.0001)  MDS_READ_FIELD: opening global file: m_sst_step.0000000001.data
(PID.TID 0000.0001)  MDS_READ_FIELD: opening global file: labsea_SST_fields_t10
(PID.TID 0000.0001)  MDS_READ_FIELD: opening global file: sigma_sst.bin
(PID.TID 0000.0001)  MDS_READ_FIELD: opening global file: m_sst_step.0000000001.data
(PID.TID 0000.0001)  MDS_READ_FIELD: opening global file: labsea_SST_fields_t10
(PID.TID 0000.0001)  MDS_READ_FIELD: opening global file: sigma_sst.bin
(PID.TID 0000.0001)  MDS_READ_FIELD: opening global file: m_sst_step.0000000001.data
(PID.TID 0000.0001)  MDS_READ_FIELD: opening global file: labsea_SST_fields_t10
(PID.TID 0000.0001)  MDS_READ_FIELD: opening global file: sigma_sst.bin
(PID.TID 0000.0001)  MDS_READ_FIELD: opening global file: m_sst_step.0000000001.data
(PID.TID 0000.0001)  MDS_READ_FIELD: opening global file: labsea_SST_fields_t10
(PID.TID 0000.0001)  MDS_READ_FIELD: opening global file: adm_sst_step.0000000001.data
(PID.TID 0000.0001)  MDS_WRITE_FIELD: it,rec,kS,kL,kH=       1   -10  23   1   1 file=adm_sst_step.0000000001
(PID.TID 0000.0001)  MDS_READ_FIELD: opening global file: sigma_sst.bin
(PID.TID 0000.0001)  MDS_READ_FIELD: opening global file: m_sst_step.0000000001.data
(PID.TID 0000.0001)  MDS_READ_FIELD: opening global file: labsea_SST_fields_t10
(PID.TID 0000.0001)  MDS_READ_FIELD: opening global file: adm_sst_step.0000000001.data
(PID.TID 0000.0001)  MDS_WRITE_FIELD: it,rec,kS,kL,kH=       1    -9  23   1   1 file=adm_sst_step.0000000001
(PID.TID 0000.0001)  MDS_READ_FIELD: opening global file: sigma_sst.bin
(PID.TID 0000.0001)  MDS_READ_FIELD: opening global file: m_sst_step.0000000001.data
(PID.TID 0000.0001)  MDS_READ_FIELD: opening global file: labsea_SST_fields_t10
(PID.TID 0000.0001)  MDS_READ_FIELD: opening global file: adm_sst_step.0000000001.data
(PID.TID 0000.0001)  MDS_WRITE_FIELD: it,rec,kS,kL,kH=       1    -8  23   1   1 file=adm_sst_step.0000000001
(PID.TID 0000.0001)  MDS_READ_FIELD: opening global file: sigma_sst.bin
(PID.TID 0000.0001)  MDS_READ_FIELD: opening global file: m_sst_step.0000000001.data
(PID.TID 0000.0001)  MDS_READ_FIELD: opening global file: labsea_SST_fields_t10
(PID.TID 0000.0001)  MDS_READ_FIELD: opening global file: adm_sst_step.0000000001.data
(PID.TID 0000.0001)  MDS_WRITE_FIELD: it,rec,kS,kL,kH=       1    -7  23   1   1 file=adm_sst_step.0000000001
(PID.TID 0000.0001)  MDS_READ_FIELD: opening global file: sigma_sst.bin
(PID.TID 0000.0001)  MDS_READ_FIELD: opening global file: m_sst_step.0000000001.data
(PID.TID 0000.0001)  MDS_READ_FIELD: opening global file: labsea_SST_fields_t10
(PID.TID 0000.0001)  MDS_READ_FIELD: opening global file: adm_sst_step.0000000001.data
(PID.TID 0000.0001)  MDS_WRITE_FIELD: it,rec,kS,kL,kH=       1    -6  23   1   1 file=adm_sst_step.0000000001
(PID.TID 0000.0001)  MDS_READ_FIELD: opening global file: sigma_sst.bin
(PID.TID 0000.0001)  MDS_READ_FIELD: opening global file: m_sst_step.0000000001.data
(PID.TID 0000.0001)  MDS_READ_FIELD: opening global file: labsea_SST_fields_t10
(PID.TID 0000.0001)  MDS_READ_FIELD: opening global file: adm_sst_step.0000000001.data
(PID.TID 0000.0001)  MDS_WRITE_FIELD: it,rec,kS,kL,kH=       1    -5  23   1   1 file=adm_sst_step.0000000001
(PID.TID 0000.0001)  MDS_READ_FIELD: opening global file: sigma_sst.bin
(PID.TID 0000.0001)  MDS_READ_FIELD: opening global file: m_sst_step.0000000001.data
(PID.TID 0000.0001)  MDS_READ_FIELD: opening global file: labsea_SST_fields_t10
(PID.TID 0000.0001)  MDS_READ_FIELD: opening global file: adm_sst_step.0000000001.data
(PID.TID 0000.0001)  MDS_WRITE_FIELD: it,rec,kS,kL,kH=       1    -4  23   1   1 file=adm_sst_step.0000000001
(PID.TID 0000.0001)  MDS_READ_FIELD: opening global file: sigma_sst.bin
(PID.TID 0000.0001)  MDS_READ_FIELD: opening global file: m_sst_step.0000000001.data
(PID.TID 0000.0001)  MDS_READ_FIELD: opening global file: labsea_SST_fields_t10
(PID.TID 0000.0001)  MDS_READ_FIELD: opening global file: adm_sst_step.0000000001.data
(PID.TID 0000.0001)  MDS_WRITE_FIELD: it,rec,kS,kL,kH=       1    -3  23   1   1 file=adm_sst_step.0000000001
(PID.TID 0000.0001)  MDS_READ_FIELD: opening global file: sigma_sst.bin
(PID.TID 0000.0001)  MDS_READ_FIELD: opening global file: m_sst_step.0000000001.data
(PID.TID 0000.0001)  MDS_READ_FIELD: opening global file: labsea_SST_fields_t10
(PID.TID 0000.0001)  MDS_READ_FIELD: opening global file: adm_sst_step.0000000001.data
(PID.TID 0000.0001)  MDS_WRITE_FIELD: it,rec,kS,kL,kH=       1    -2  23   1   1 file=adm_sst_step.0000000001
(PID.TID 0000.0001)  MDS_READ_FIELD: opening global file: sigma_sst.bin
(PID.TID 0000.0001)  MDS_READ_FIELD: opening global file: m_sst_step.0000000001.data
(PID.TID 0000.0001)  MDS_READ_FIELD: opening global file: labsea_SST_fields_t10
(PID.TID 0000.0001)  MDS_READ_FIELD: opening global file: adm_sst_step.0000000001.data
(PID.TID 0000.0001)  MDS_WRITE_FIELD: it,rec,kS,kL,kH=       1    -1  23   1   1 file=adm_sst_step.0000000001
(PID.TID 0000.0001)  MDS_READ_FIELD: opening global file: adm_sst_step.0000000001.data
(PID.TID 0000.0001)  MDS_WRITE_FIELD: it,rec,kS,kL,kH=       1   -10  23   1   1 file=adm_sst_step.0000000001
(PID.TID 0000.0001) ADREAD:  tid,vid, irec, length, prec(x2)=    39     1     3      672  8 64 fname=tapelev3_1_the_main_loop_etan
(PID.TID 0000.0001) ADREAD:  tid,vid, irec, length, prec(x2)=    39     2     3      672  8 64 fname=tapelev3_2_the_main_loop_taux0
(PID.TID 0000.0001) ADREAD:  tid,vid, irec, length, prec(x2)=    39     3     3      672  8 64 fname=tapelev3_3_the_main_loop_taux1
(PID.TID 0000.0001) ADREAD:  tid,vid, irec, length, prec(x2)=    39     4     3      672  8 64 fname=tapelev3_4_the_main_loop_tauy0
(PID.TID 0000.0001) ADREAD:  tid,vid, irec, length, prec(x2)=    39     5     3      672  8 64 fname=tapelev3_5_the_main_loop_tauy1
(PID.TID 0000.0001) ADREAD:  tid,vid, irec, length, prec(x2)=    39     6     3      672  8 64 fname=tapelev3_6_the_main_loop_qnet0
(PID.TID 0000.0001) ADREAD:  tid,vid, irec, length, prec(x2)=    39     7     3      672  8 64 fname=tapelev3_7_the_main_loop_qnet1
(PID.TID 0000.0001) ADREAD:  tid,vid, irec, length, prec(x2)=    39     8     3      672  8 64 fname=tapelev3_8_the_main_loop_empmr0
(PID.TID 0000.0001) ADREAD:  tid,vid, irec, length, prec(x2)=    39     9     3      672  8 64 fname=tapelev3_9_the_main_loop_empmr1
(PID.TID 0000.0001) ADREAD:  tid,vid, irec, length, prec(x2)=    39    10     3      672  8 64 fname=tapelev3_10_the_main_loop_sst0
(PID.TID 0000.0001) ADREAD:  tid,vid, irec, length, prec(x2)=    39    11     3      672  8 64 fname=tapelev3_11_the_main_loop_sst1
(PID.TID 0000.0001) ADREAD:  tid,vid, irec, length, prec(x2)=    39    12     3      672  8 64 fname=tapelev3_12_the_main_loop_sss0
(PID.TID 0000.0001) ADREAD:  tid,vid, irec, length, prec(x2)=    39    13     3      672  8 64 fname=tapelev3_13_the_main_loop_sss1
(PID.TID 0000.0001) ADREAD:  tid,vid, irec, length, prec(x2)=    39    14     3      672  8 64 fname=tapelev3_14_the_main_loop_saltflux0
(PID.TID 0000.0001) ADREAD:  tid,vid, irec, length, prec(x2)=    39    15     3      672  8 64 fname=tapelev3_15_the_main_loop_saltflux1
(PID.TID 0000.0001) ADREAD:  tid,vid, irec, length, prec(x2)=    39    16     3      672  8 64 fname=tapelev3_16_the_main_loop_qsw0
(PID.TID 0000.0001) ADREAD:  tid,vid, irec, length, prec(x2)=    39    17     3      672  8 64 fname=tapelev3_17_the_main_loop_qsw1
(PID.TID 0000.0001) ADREAD:  tid,vid, irec, length, prec(x2)=    39    18     3      672  8 64 fname=tapelev3_18_the_main_loop_pload0
(PID.TID 0000.0001) ADREAD:  tid,vid, irec, length, prec(x2)=    39    19     3      672  8 64 fname=tapelev3_19_the_main_loop_pload1
(PID.TID 0000.0001) ADREAD:  tid,vid, irec, length, prec(x2)=    39    20     3      672  8 64 fname=tapelev3_20_the_main_loop_etah
(PID.TID 0000.0001) ADREAD:  tid,vid, irec, length, prec(x2)=    39    21     3      672  8 64 fname=tapelev3_21_the_main_loop_detahdt
(PID.TID 0000.0001) ADREAD:  tid,vid, irec, length, prec(x2)=    39    22     3      672  8 64 fname=tapelev3_22_the_main_loop_pmepr
(PID.TID 0000.0001) ADREAD:  tid,vid, irec, length, prec(x2)=    39    23     3    15456  8 64 fname=tapelev3_23_the_main_loop_gtnm1
(PID.TID 0000.0001) ADREAD:  tid,vid, irec, length, prec(x2)=    39    24     3    15456  8 64 fname=tapelev3_24_the_main_loop_gsnm1
(PID.TID 0000.0001) ADREAD:  tid,vid, irec, length, prec(x2)=    39    25     3    15456  8 64 fname=tapelev3_25_the_main_loop_gunm1
(PID.TID 0000.0001) ADREAD:  tid,vid, irec, length, prec(x2)=    39    26     3    15456  8 64 fname=tapelev3_26_the_main_loop_gvnm1
(PID.TID 0000.0001) ADREAD:  tid,vid, irec, length, prec(x2)=    39    27     3    15456  8 64 fname=tapelev3_27_the_main_loop_theta
(PID.TID 0000.0001) ADREAD:  tid,vid, irec, length, prec(x2)=    39    28     3    15456  8 64 fname=tapelev3_28_the_main_loop_salt
(PID.TID 0000.0001) ADREAD:  tid,vid, irec, length, prec(x2)=    39    29     3    15456  8 64 fname=tapelev3_29_the_main_loop_uvel
(PID.TID 0000.0001) ADREAD:  tid,vid, irec, length, prec(x2)=    39    30     3    15456  8 64 fname=tapelev3_30_the_main_loop_vvel
(PID.TID 0000.0001) ADREAD:  tid,vid, irec, length, prec(x2)=    39    31     3    15456  8 64 fname=tapelev3_31_the_main_loop_wvel
(PID.TID 0000.0001) ADREAD:  tid,vid, irec, length, prec(x2)=    39    32     3    15456  8 64 fname=tapelev3_32_the_main_loop_totphihyd
(PID.TID 0000.0001) ADREAD:  tid,vid, irec, length, prec(x2)=    39    35     3    15456  8 64 fname=tapelev3_35_the_main_loop_uveld
(PID.TID 0000.0001) ADREAD:  tid,vid, irec, length, prec(x2)=    39    36     3    15456  8 64 fname=tapelev3_36_the_main_loop_vveld
(PID.TID 0000.0001) ADREAD:  tid,vid, irec, length, prec(x2)=    39    37     3      672  8 64 fname=tapelev3_37_the_main_loop_etanm1
(PID.TID 0000.0001) ADREAD:  tid,vid, irec, length, prec(x2)=    39    38     3    15456  8 64 fname=tapelev3_38_the_main_loop_unm1
(PID.TID 0000.0001) ADREAD:  tid,vid, irec, length, prec(x2)=    39    39     3    15456  8 64 fname=tapelev3_39_the_main_loop_vnm1
(PID.TID 0000.0001) ADREAD:  tid,vid, irec, length, prec(x2)=    39    40     3      672  8 64 fname=tapelev3_40_the_main_loop_areamask0
(PID.TID 0000.0001) ADREAD:  tid,vid, irec, length, prec(x2)=    39    41     3      672  8 64 fname=tapelev3_41_the_main_loop_areamask1
(PID.TID 0000.0001) ADREAD:  tid,vid, irec, length, prec(x2)=    39    42     3      672  8 64 fname=tapelev3_42_the_main_loop_hflux0
(PID.TID 0000.0001) ADREAD:  tid,vid, irec, length, prec(x2)=    39    43     3      672  8 64 fname=tapelev3_43_the_main_loop_hflux1
(PID.TID 0000.0001) ADREAD:  tid,vid, irec, length, prec(x2)=    39    44     3      672  8 64 fname=tapelev3_44_the_main_loop_sflux0
(PID.TID 0000.0001) ADREAD:  tid,vid, irec, length, prec(x2)=    39    45     3      672  8 64 fname=tapelev3_45_the_main_loop_sflux1
(PID.TID 0000.0001) ADREAD:  tid,vid, irec, length, prec(x2)=    39    46     3      672  8 64 fname=tapelev3_46_the_main_loop_ustress0
(PID.TID 0000.0001) ADREAD:  tid,vid, irec, length, prec(x2)=    39    47     3      672  8 64 fname=tapelev3_47_the_main_loop_ustress1
(PID.TID 0000.0001) ADREAD:  tid,vid, irec, length, prec(x2)=    39    48     3      672  8 64 fname=tapelev3_48_the_main_loop_vstress0
(PID.TID 0000.0001) ADREAD:  tid,vid, irec, length, prec(x2)=    39    49     3      672  8 64 fname=tapelev3_49_the_main_loop_vstress1
(PID.TID 0000.0001) ADREAD:  tid,vid, irec, length, prec(x2)=    39    50     3      672  8 64 fname=tapelev3_50_the_main_loop_wspeed0
(PID.TID 0000.0001) ADREAD:  tid,vid, irec, length, prec(x2)=    39    51     3      672  8 64 fname=tapelev3_51_the_main_loop_wspeed1
(PID.TID 0000.0001) ADREAD:  tid,vid, irec, length, prec(x2)=    39    54     3      672  8 64 fname=tapelev3_54_the_main_loop_runoff0
(PID.TID 0000.0001) ADREAD:  tid,vid, irec, length, prec(x2)=    39    55     3      672  8 64 fname=tapelev3_55_the_main_loop_runoff1
(PID.TID 0000.0001) ADREAD:  tid,vid, irec, length, prec(x2)=    39    56     3      672  8 64 fname=tapelev3_56_the_main_loop_apressure0
(PID.TID 0000.0001) ADREAD:  tid,vid, irec, length, prec(x2)=    39    57     3      672  8 64 fname=tapelev3_57_the_main_loop_apressure1
(PID.TID 0000.0001) ADREAD:  tid,vid, irec, length, prec(x2)=    39    58     3      672  8 64 fname=tapelev3_58_the_main_loop_siceload
(PID.TID 0000.0001) ADREAD:  tid,vid, irec, length, prec(x2)=    39    59     3      672  8 64 fname=tapelev3_59_the_main_loop_climsss0
(PID.TID 0000.0001) ADREAD:  tid,vid, irec, length, prec(x2)=    39    60     3      672  8 64 fname=tapelev3_60_the_main_loop_climsss1
(PID.TID 0000.0001) ADREAD:  tid,vid, irec, length, prec(x2)=    39    61     3      672  8 64 fname=tapelev3_61_the_main_loop_climsst0
(PID.TID 0000.0001) ADREAD:  tid,vid, irec, length, prec(x2)=    39    62     3      672  8 64 fname=tapelev3_62_the_main_loop_climsst1
(PID.TID 0000.0001) ADREAD:  tid,vid, irec, length, prec(x2)=    39    63     3      672  8 64 fname=tapelev3_63_the_main_loop_saltflx0
(PID.TID 0000.0001) ADREAD:  tid,vid, irec, length, prec(x2)=    39    64     3      672  8 64 fname=tapelev3_64_the_main_loop_saltflx1
(PID.TID 0000.0001) ADREAD:  tid,vid, irec, length, prec(x2)=    39    65     3      672  8 64 fname=tapelev3_65_the_main_loop_aqh0
(PID.TID 0000.0001) ADREAD:  tid,vid, irec, length, prec(x2)=    39    66     3      672  8 64 fname=tapelev3_66_the_main_loop_aqh1
(PID.TID 0000.0001) ADREAD:  tid,vid, irec, length, prec(x2)=    39    67     3      672  8 64 fname=tapelev3_67_the_main_loop_atemp0
(PID.TID 0000.0001) ADREAD:  tid,vid, irec, length, prec(x2)=    39    68     3      672  8 64 fname=tapelev3_68_the_main_loop_atemp1
(PID.TID 0000.0001) ADREAD:  tid,vid, irec, length, prec(x2)=    39    69     3      672  8 64 fname=tapelev3_69_the_main_loop_precip0
(PID.TID 0000.0001) ADREAD:  tid,vid, irec, length, prec(x2)=    39    70     3      672  8 64 fname=tapelev3_70_the_main_loop_precip1
(PID.TID 0000.0001) ADREAD:  tid,vid, irec, length, prec(x2)=    39    73     3      672  8 64 fname=tapelev3_73_the_main_loop_snowprecip0
(PID.TID 0000.0001) ADREAD:  tid,vid, irec, length, prec(x2)=    39    74     3      672  8 64 fname=tapelev3_74_the_main_loop_snowprecip1
(PID.TID 0000.0001) ADREAD:  tid,vid, irec, length, prec(x2)=    39    75     3      672  8 64 fname=tapelev3_75_the_main_loop_swdown0
(PID.TID 0000.0001) ADREAD:  tid,vid, irec, length, prec(x2)=    39    76     3      672  8 64 fname=tapelev3_76_the_main_loop_swdown1
(PID.TID 0000.0001) ADREAD:  tid,vid, irec, length, prec(x2)=    39    77     3      672  8 64 fname=tapelev3_77_the_main_loop_lwdown0
(PID.TID 0000.0001) ADREAD:  tid,vid, irec, length, prec(x2)=    39    78     3      672  8 64 fname=tapelev3_78_the_main_loop_lwdown1
(PID.TID 0000.0001) ADREAD:  tid,vid, irec, length, prec(x2)=    39    79     3      672  8 64 fname=tapelev3_79_the_main_loop_uwind0
(PID.TID 0000.0001) ADREAD:  tid,vid, irec, length, prec(x2)=    39    80     3      672  8 64 fname=tapelev3_80_the_main_loop_uwind1
(PID.TID 0000.0001) ADREAD:  tid,vid, irec, length, prec(x2)=    39    81     3      672  8 64 fname=tapelev3_81_the_main_loop_vwind0
(PID.TID 0000.0001) ADREAD:  tid,vid, irec, length, prec(x2)=    39    82     3      672  8 64 fname=tapelev3_82_the_main_loop_vwind1
(PID.TID 0000.0001) ADREAD:  tid,vid, irec, length, prec(x2)=    39    83     3     6048  8 64 fname=tapelev3_83_the_main_loop_xx_gentim2d
(PID.TID 0000.0001) ADREAD:  tid,vid, irec, length, prec(x2)=    39    84     3     6048  8 64 fname=tapelev3_84_the_main_loop_xx_gentim2d0
(PID.TID 0000.0001) ADREAD:  tid,vid, irec, length, prec(x2)=    39    85     3     6048  8 64 fname=tapelev3_85_the_main_loop_xx_gentim2d1
(PID.TID 0000.0001) ADREAD:  tid,vid, irec, length, prec(x2)=    39    87     3      672  8 64 fname=tapelev3_87_the_main_loop_phihydlow
(PID.TID 0000.0001) ADREAD:  tid,vid, irec, length, prec(x2)=    39    88     3      672  8 64 fname=tapelev3_88_the_main_loop_area
(PID.TID 0000.0001) ADREAD:  tid,vid, irec, length, prec(x2)=    39    89     3      672  8 64 fname=tapelev3_89_the_main_loop_heff
(PID.TID 0000.0001) ADREAD:  tid,vid, irec, length, prec(x2)=    39    90     3      672  8 64 fname=tapelev3_90_the_main_loop_hsnow
(PID.TID 0000.0001) ADREAD:  tid,vid, irec, length, prec(x2)=    39    92     3      672  8 64 fname=tapelev3_92_the_main_loop_uice
(PID.TID 0000.0001) ADREAD:  tid,vid, irec, length, prec(x2)=    39    93     3      672  8 64 fname=tapelev3_93_the_main_loop_vice
(PID.TID 0000.0001) ADREAD:  tid,vid, irec, length, prec(x2)=    39    96     3     4704  8 64 fname=tapelev3_96_the_main_loop_tices
(PID.TID 0000.0001) ADREAD:  tid,vid, irec, length, prec(x2)=    39    97     3      672  8 64 fname=tapelev3_97_the_main_loop_dwatn
(PID.TID 0000.0001) ADREAD:  tid,vid, irec, length, prec(x2)=    39    98     3      672  8 64 fname=tapelev3_98_the_main_loop_stressdivergencex
(PID.TID 0000.0001) ADREAD:  tid,vid, irec, length, prec(x2)=    39    99     3      672  8 64 fname=tapelev3_99_the_main_loop_stressdivergencey
(PID.TID 0000.0001) ADREAD:  tid,vid, irec, length, prec(x2)=    39   100     3      672  8 64 fname=tapelev3_100_the_main_loop_seaice_sigma1
(PID.TID 0000.0001) ADREAD:  tid,vid, irec, length, prec(x2)=    39   101     3      672  8 64 fname=tapelev3_101_the_main_loop_seaice_sigma2
(PID.TID 0000.0001) ADREAD:  tid,vid, irec, length, prec(x2)=    39   102     3      672  8 64 fname=tapelev3_102_the_main_loop_seaice_sigma12
(PID.TID 0000.0001) ADREAD:  tid,vid, irec, length, prec(x2)=    39   103     3      672  8 64 fname=tapelev3_103_the_main_loop_hsalt
(PID.TID 0000.0001) ADWRITE: tid,vid, irec, length, prec(x2)=    41     1     1      672  8 64 fname=tapelev2_1_the_main_loop_etan
(PID.TID 0000.0001) ADWRITE:  tapeFileCounter =     1
(PID.TID 0000.0001) ADWRITE: tid,vid, irec, length, prec(x2)=    41     2     1      672  8 64 fname=tapelev2_2_the_main_loop_taux0
(PID.TID 0000.0001) ADWRITE:  tapeFileCounter =     2
(PID.TID 0000.0001) ADWRITE: tid,vid, irec, length, prec(x2)=    41     3     1      672  8 64 fname=tapelev2_3_the_main_loop_taux1
(PID.TID 0000.0001) ADWRITE:  tapeFileCounter =     3
(PID.TID 0000.0001) ADWRITE: tid,vid, irec, length, prec(x2)=    41     4     1      672  8 64 fname=tapelev2_4_the_main_loop_tauy0
(PID.TID 0000.0001) ADWRITE:  tapeFileCounter =     4
(PID.TID 0000.0001) ADWRITE: tid,vid, irec, length, prec(x2)=    41     5     1      672  8 64 fname=tapelev2_5_the_main_loop_tauy1
(PID.TID 0000.0001) ADWRITE:  tapeFileCounter =     5
(PID.TID 0000.0001) ADWRITE: tid,vid, irec, length, prec(x2)=    41     6     1      672  8 64 fname=tapelev2_6_the_main_loop_qnet0
(PID.TID 0000.0001) ADWRITE:  tapeFileCounter =     6
(PID.TID 0000.0001) ADWRITE: tid,vid, irec, length, prec(x2)=    41     7     1      672  8 64 fname=tapelev2_7_the_main_loop_qnet1
(PID.TID 0000.0001) ADWRITE:  tapeFileCounter =     7
(PID.TID 0000.0001) ADWRITE: tid,vid, irec, length, prec(x2)=    41     8     1      672  8 64 fname=tapelev2_8_the_main_loop_empmr0
(PID.TID 0000.0001) ADWRITE:  tapeFileCounter =     8
(PID.TID 0000.0001) ADWRITE: tid,vid, irec, length, prec(x2)=    41     9     1      672  8 64 fname=tapelev2_9_the_main_loop_empmr1
(PID.TID 0000.0001) ADWRITE:  tapeFileCounter =     9
(PID.TID 0000.0001) ADWRITE: tid,vid, irec, length, prec(x2)=    41    10     1      672  8 64 fname=tapelev2_10_the_main_loop_sst0
(PID.TID 0000.0001) ADWRITE:  tapeFileCounter =    10
(PID.TID 0000.0001) ADWRITE: tid,vid, irec, length, prec(x2)=    41    11     1      672  8 64 fname=tapelev2_11_the_main_loop_sst1
(PID.TID 0000.0001) ADWRITE:  tapeFileCounter =    11
(PID.TID 0000.0001) ADWRITE: tid,vid, irec, length, prec(x2)=    41    12     1      672  8 64 fname=tapelev2_12_the_main_loop_sss0
(PID.TID 0000.0001) ADWRITE:  tapeFileCounter =    12
(PID.TID 0000.0001) ADWRITE: tid,vid, irec, length, prec(x2)=    41    13     1      672  8 64 fname=tapelev2_13_the_main_loop_sss1
(PID.TID 0000.0001) ADWRITE:  tapeFileCounter =    13
(PID.TID 0000.0001) ADWRITE: tid,vid, irec, length, prec(x2)=    41    14     1      672  8 64 fname=tapelev2_14_the_main_loop_saltflux0
(PID.TID 0000.0001) ADWRITE:  tapeFileCounter =    14
(PID.TID 0000.0001) ADWRITE: tid,vid, irec, length, prec(x2)=    41    15     1      672  8 64 fname=tapelev2_15_the_main_loop_saltflux1
(PID.TID 0000.0001) ADWRITE:  tapeFileCounter =    15
(PID.TID 0000.0001) ADWRITE: tid,vid, irec, length, prec(x2)=    41    16     1      672  8 64 fname=tapelev2_16_the_main_loop_qsw0
(PID.TID 0000.0001) ADWRITE:  tapeFileCounter =    16
(PID.TID 0000.0001) ADWRITE: tid,vid, irec, length, prec(x2)=    41    17     1      672  8 64 fname=tapelev2_17_the_main_loop_qsw1
(PID.TID 0000.0001) ADWRITE:  tapeFileCounter =    17
(PID.TID 0000.0001) ADWRITE: tid,vid, irec, length, prec(x2)=    41    18     1      672  8 64 fname=tapelev2_18_the_main_loop_pload0
(PID.TID 0000.0001) ADWRITE:  tapeFileCounter =    18
(PID.TID 0000.0001) ADWRITE: tid,vid, irec, length, prec(x2)=    41    19     1      672  8 64 fname=tapelev2_19_the_main_loop_pload1
(PID.TID 0000.0001) ADWRITE:  tapeFileCounter =    19
(PID.TID 0000.0001) ADWRITE: tid,vid, irec, length, prec(x2)=    41    20     1      672  8 64 fname=tapelev2_20_the_main_loop_etah
(PID.TID 0000.0001) ADWRITE:  tapeFileCounter =    20
(PID.TID 0000.0001) ADWRITE: tid,vid, irec, length, prec(x2)=    41    21     1      672  8 64 fname=tapelev2_21_the_main_loop_detahdt
(PID.TID 0000.0001) ADWRITE:  tapeFileCounter =    21
(PID.TID 0000.0001) ADWRITE: tid,vid, irec, length, prec(x2)=    41    22     1      672  8 64 fname=tapelev2_22_the_main_loop_pmepr
(PID.TID 0000.0001) ADWRITE:  tapeFileCounter =    22
(PID.TID 0000.0001) ADWRITE: tid,vid, irec, length, prec(x2)=    41    23     1    15456  8 64 fname=tapelev2_23_the_main_loop_gtnm1
(PID.TID 0000.0001) ADWRITE:  tapeFileCounter =    23
(PID.TID 0000.0001) ADWRITE:  tapeFileCounter =    24
(PID.TID 0000.0001) ADWRITE:  tapeFileCounter =    25
(PID.TID 0000.0001) ADWRITE:  tapeFileCounter =    26
(PID.TID 0000.0001) ADWRITE:  tapeFileCounter =    27
(PID.TID 0000.0001) ADWRITE:  tapeFileCounter =    28
(PID.TID 0000.0001) ADWRITE:  tapeFileCounter =    29
(PID.TID 0000.0001) ADWRITE:  tapeFileCounter =    30
(PID.TID 0000.0001) ADWRITE:  tapeFileCounter =    31
(PID.TID 0000.0001) ADWRITE:  tapeFileCounter =    32
(PID.TID 0000.0001) ADWRITE:  tapeFileCounter =    33
(PID.TID 0000.0001) ADWRITE:  tapeFileCounter =    34
(PID.TID 0000.0001) ADWRITE:  tapeFileCounter =    35
(PID.TID 0000.0001) ADWRITE:  tapeFileCounter =    36
(PID.TID 0000.0001) ADWRITE:  tapeFileCounter =    37
(PID.TID 0000.0001) ADWRITE:  tapeFileCounter =    38
(PID.TID 0000.0001) ADWRITE:  tapeFileCounter =    39
(PID.TID 0000.0001) ADWRITE:  tapeFileCounter =    40
(PID.TID 0000.0001) ADWRITE:  tapeFileCounter =    41
(PID.TID 0000.0001) ADWRITE:  tapeFileCounter =    42
(PID.TID 0000.0001) ADWRITE:  tapeFileCounter =    43
(PID.TID 0000.0001) ADWRITE:  tapeFileCounter =    44
(PID.TID 0000.0001) ADWRITE:  tapeFileCounter =    45
(PID.TID 0000.0001) ADWRITE: tid,vid, irec, length, prec(x2)=    41    24     1    15456  8 64 fname=tapelev2_24_the_main_loop_gsnm1
(PID.TID 0000.0001) ADWRITE:  tapeFileCounter =    46
(PID.TID 0000.0001) ADWRITE:  tapeFileCounter =    47
(PID.TID 0000.0001) ADWRITE:  tapeFileCounter =    48
(PID.TID 0000.0001) ADWRITE:  tapeFileCounter =    49
(PID.TID 0000.0001) ADWRITE:  tapeFileCounter =    50
(PID.TID 0000.0001) ADWRITE:  tapeFileCounter =    51
(PID.TID 0000.0001) ADWRITE:  tapeFileCounter =    52
(PID.TID 0000.0001) ADWRITE:  tapeFileCounter =    53
(PID.TID 0000.0001) ADWRITE:  tapeFileCounter =    54
(PID.TID 0000.0001) ADWRITE:  tapeFileCounter =    55
(PID.TID 0000.0001) ADWRITE:  tapeFileCounter =    56
(PID.TID 0000.0001) ADWRITE:  tapeFileCounter =    57
(PID.TID 0000.0001) ADWRITE:  tapeFileCounter =    58
(PID.TID 0000.0001) ADWRITE:  tapeFileCounter =    59
(PID.TID 0000.0001) ADWRITE:  tapeFileCounter =    60
(PID.TID 0000.0001) ADWRITE:  tapeFileCounter =    61
(PID.TID 0000.0001) ADWRITE:  tapeFileCounter =    62
(PID.TID 0000.0001) ADWRITE:  tapeFileCounter =    63
(PID.TID 0000.0001) ADWRITE:  tapeFileCounter =    64
(PID.TID 0000.0001) ADWRITE:  tapeFileCounter =    65
(PID.TID 0000.0001) ADWRITE:  tapeFileCounter =    66
(PID.TID 0000.0001) ADWRITE:  tapeFileCounter =    67
(PID.TID 0000.0001) ADWRITE:  tapeFileCounter =    68
(PID.TID 0000.0001) ADWRITE: tid,vid, irec, length, prec(x2)=    41    25     1    15456  8 64 fname=tapelev2_25_the_main_loop_gunm1
(PID.TID 0000.0001) ADWRITE:  tapeFileCounter =    69
(PID.TID 0000.0001) ADWRITE:  tapeFileCounter =    70
(PID.TID 0000.0001) ADWRITE:  tapeFileCounter =    71
(PID.TID 0000.0001) ADWRITE:  tapeFileCounter =    72
(PID.TID 0000.0001) ADWRITE:  tapeFileCounter =    73
(PID.TID 0000.0001) ADWRITE:  tapeFileCounter =    74
(PID.TID 0000.0001) ADWRITE:  tapeFileCounter =    75
(PID.TID 0000.0001) ADWRITE:  tapeFileCounter =    76
(PID.TID 0000.0001) ADWRITE:  tapeFileCounter =    77
(PID.TID 0000.0001) ADWRITE:  tapeFileCounter =    78
(PID.TID 0000.0001) ADWRITE:  tapeFileCounter =    79
(PID.TID 0000.0001) ADWRITE:  tapeFileCounter =    80
(PID.TID 0000.0001) ADWRITE:  tapeFileCounter =    81
(PID.TID 0000.0001) ADWRITE:  tapeFileCounter =    82
(PID.TID 0000.0001) ADWRITE:  tapeFileCounter =    83
(PID.TID 0000.0001) ADWRITE:  tapeFileCounter =    84
(PID.TID 0000.0001) ADWRITE:  tapeFileCounter =    85
(PID.TID 0000.0001) ADWRITE:  tapeFileCounter =    86
(PID.TID 0000.0001) ADWRITE:  tapeFileCounter =    87
(PID.TID 0000.0001) ADWRITE:  tapeFileCounter =    88
(PID.TID 0000.0001) ADWRITE:  tapeFileCounter =    89
(PID.TID 0000.0001) ADWRITE:  tapeFileCounter =    90
(PID.TID 0000.0001) ADWRITE:  tapeFileCounter =    91
(PID.TID 0000.0001) ADWRITE: tid,vid, irec, length, prec(x2)=    41    26     1    15456  8 64 fname=tapelev2_26_the_main_loop_gvnm1
(PID.TID 0000.0001) ADWRITE:  tapeFileCounter =    92
(PID.TID 0000.0001) ADWRITE:  tapeFileCounter =    93
(PID.TID 0000.0001) ADWRITE:  tapeFileCounter =    94
(PID.TID 0000.0001) ADWRITE:  tapeFileCounter =    95
(PID.TID 0000.0001) ADWRITE:  tapeFileCounter =    96
(PID.TID 0000.0001) ADWRITE:  tapeFileCounter =    97
(PID.TID 0000.0001) ADWRITE:  tapeFileCounter =    98
(PID.TID 0000.0001) ADWRITE:  tapeFileCounter =    99
(PID.TID 0000.0001) ADWRITE:  tapeFileCounter =   100
(PID.TID 0000.0001) ADWRITE:  tapeFileCounter =   101
(PID.TID 0000.0001) ADWRITE:  tapeFileCounter =   102
(PID.TID 0000.0001) ADWRITE:  tapeFileCounter =   103
(PID.TID 0000.0001) ADWRITE:  tapeFileCounter =   104
(PID.TID 0000.0001) ADWRITE:  tapeFileCounter =   105
(PID.TID 0000.0001) ADWRITE:  tapeFileCounter =   106
(PID.TID 0000.0001) ADWRITE:  tapeFileCounter =   107
(PID.TID 0000.0001) ADWRITE:  tapeFileCounter =   108
(PID.TID 0000.0001) ADWRITE:  tapeFileCounter =   109
(PID.TID 0000.0001) ADWRITE:  tapeFileCounter =   110
(PID.TID 0000.0001) ADWRITE:  tapeFileCounter =   111
(PID.TID 0000.0001) ADWRITE:  tapeFileCounter =   112
(PID.TID 0000.0001) ADWRITE:  tapeFileCounter =   113
(PID.TID 0000.0001) ADWRITE:  tapeFileCounter =   114
(PID.TID 0000.0001) ADWRITE: tid,vid, irec, length, prec(x2)=    41    27     1    15456  8 64 fname=tapelev2_27_the_main_loop_theta
(PID.TID 0000.0001) ADWRITE:  tapeFileCounter =   115
(PID.TID 0000.0001) ADWRITE:  tapeFileCounter =   116
(PID.TID 0000.0001) ADWRITE:  tapeFileCounter =   117
(PID.TID 0000.0001) ADWRITE:  tapeFileCounter =   118
(PID.TID 0000.0001) ADWRITE:  tapeFileCounter =   119
(PID.TID 0000.0001) ADWRITE:  tapeFileCounter =   120
(PID.TID 0000.0001) ADWRITE:  tapeFileCounter =   121
(PID.TID 0000.0001) ADWRITE:  tapeFileCounter =   122
(PID.TID 0000.0001) ADWRITE:  tapeFileCounter =   123
(PID.TID 0000.0001) ADWRITE:  tapeFileCounter =   124
(PID.TID 0000.0001) ADWRITE:  tapeFileCounter =   125
(PID.TID 0000.0001) ADWRITE:  tapeFileCounter =   126
(PID.TID 0000.0001) ADWRITE:  tapeFileCounter =   127
(PID.TID 0000.0001) ADWRITE:  tapeFileCounter =   128
(PID.TID 0000.0001) ADWRITE:  tapeFileCounter =   129
(PID.TID 0000.0001) ADWRITE:  tapeFileCounter =   130
(PID.TID 0000.0001) ADWRITE:  tapeFileCounter =   131
(PID.TID 0000.0001) ADWRITE:  tapeFileCounter =   132
(PID.TID 0000.0001) ADWRITE:  tapeFileCounter =   133
(PID.TID 0000.0001) ADWRITE:  tapeFileCounter =   134
(PID.TID 0000.0001) ADWRITE:  tapeFileCounter =   135
(PID.TID 0000.0001) ADWRITE:  tapeFileCounter =   136
(PID.TID 0000.0001) ADWRITE:  tapeFileCounter =   137
(PID.TID 0000.0001) ADWRITE: tid,vid, irec, length, prec(x2)=    41    28     1    15456  8 64 fname=tapelev2_28_the_main_loop_salt
(PID.TID 0000.0001) ADWRITE:  tapeFileCounter =   138
(PID.TID 0000.0001) ADWRITE:  tapeFileCounter =   139
(PID.TID 0000.0001) ADWRITE:  tapeFileCounter =   140
(PID.TID 0000.0001) ADWRITE:  tapeFileCounter =   141
(PID.TID 0000.0001) ADWRITE:  tapeFileCounter =   142
(PID.TID 0000.0001) ADWRITE:  tapeFileCounter =   143
(PID.TID 0000.0001) ADWRITE:  tapeFileCounter =   144
(PID.TID 0000.0001) ADWRITE:  tapeFileCounter =   145
(PID.TID 0000.0001) ADWRITE:  tapeFileCounter =   146
(PID.TID 0000.0001) ADWRITE:  tapeFileCounter =   147
(PID.TID 0000.0001) ADWRITE:  tapeFileCounter =   148
(PID.TID 0000.0001) ADWRITE:  tapeFileCounter =   149
(PID.TID 0000.0001) ADWRITE:  tapeFileCounter =   150
(PID.TID 0000.0001) ADWRITE:  tapeFileCounter =   151
(PID.TID 0000.0001) ADWRITE:  tapeFileCounter =   152
(PID.TID 0000.0001) ADWRITE:  tapeFileCounter =   153
(PID.TID 0000.0001) ADWRITE:  tapeFileCounter =   154
(PID.TID 0000.0001) ADWRITE:  tapeFileCounter =   155
(PID.TID 0000.0001) ADWRITE:  tapeFileCounter =   156
(PID.TID 0000.0001) ADWRITE:  tapeFileCounter =   157
(PID.TID 0000.0001) ADWRITE:  tapeFileCounter =   158
(PID.TID 0000.0001) ADWRITE:  tapeFileCounter =   159
(PID.TID 0000.0001) ADWRITE:  tapeFileCounter =   160
(PID.TID 0000.0001) ADWRITE: tid,vid, irec, length, prec(x2)=    41    29     1    15456  8 64 fname=tapelev2_29_the_main_loop_uvel
(PID.TID 0000.0001) ADWRITE:  tapeFileCounter =   161
(PID.TID 0000.0001) ADWRITE:  tapeFileCounter =   162
(PID.TID 0000.0001) ADWRITE:  tapeFileCounter =   163
(PID.TID 0000.0001) ADWRITE:  tapeFileCounter =   164
(PID.TID 0000.0001) ADWRITE:  tapeFileCounter =   165
(PID.TID 0000.0001) ADWRITE:  tapeFileCounter =   166
(PID.TID 0000.0001) ADWRITE:  tapeFileCounter =   167
(PID.TID 0000.0001) ADWRITE:  tapeFileCounter =   168
(PID.TID 0000.0001) ADWRITE:  tapeFileCounter =   169
(PID.TID 0000.0001) ADWRITE:  tapeFileCounter =   170
(PID.TID 0000.0001) ADWRITE:  tapeFileCounter =   171
(PID.TID 0000.0001) ADWRITE:  tapeFileCounter =   172
(PID.TID 0000.0001) ADWRITE:  tapeFileCounter =   173
(PID.TID 0000.0001) ADWRITE:  tapeFileCounter =   174
(PID.TID 0000.0001) ADWRITE:  tapeFileCounter =   175
(PID.TID 0000.0001) ADWRITE:  tapeFileCounter =   176
(PID.TID 0000.0001) ADWRITE:  tapeFileCounter =   177
(PID.TID 0000.0001) ADWRITE:  tapeFileCounter =   178
(PID.TID 0000.0001) ADWRITE:  tapeFileCounter =   179
(PID.TID 0000.0001) ADWRITE:  tapeFileCounter =   180
(PID.TID 0000.0001) ADWRITE:  tapeFileCounter =   181
(PID.TID 0000.0001) ADWRITE:  tapeFileCounter =   182
(PID.TID 0000.0001) ADWRITE:  tapeFileCounter =   183
(PID.TID 0000.0001) ADWRITE: tid,vid, irec, length, prec(x2)=    41    30     1    15456  8 64 fname=tapelev2_30_the_main_loop_vvel
(PID.TID 0000.0001) ADWRITE:  tapeFileCounter =   184
(PID.TID 0000.0001) ADWRITE:  tapeFileCounter =   185
(PID.TID 0000.0001) ADWRITE:  tapeFileCounter =   186
(PID.TID 0000.0001) ADWRITE:  tapeFileCounter =   187
(PID.TID 0000.0001) ADWRITE:  tapeFileCounter =   188
(PID.TID 0000.0001) ADWRITE:  tapeFileCounter =   189
(PID.TID 0000.0001) ADWRITE:  tapeFileCounter =   190
(PID.TID 0000.0001) ADWRITE:  tapeFileCounter =   191
(PID.TID 0000.0001) ADWRITE:  tapeFileCounter =   192
(PID.TID 0000.0001) ADWRITE:  tapeFileCounter =   193
(PID.TID 0000.0001) ADWRITE:  tapeFileCounter =   194
(PID.TID 0000.0001) ADWRITE:  tapeFileCounter =   195
(PID.TID 0000.0001) ADWRITE:  tapeFileCounter =   196
(PID.TID 0000.0001) ADWRITE:  tapeFileCounter =   197
(PID.TID 0000.0001) ADWRITE:  tapeFileCounter =   198
(PID.TID 0000.0001) ADWRITE:  tapeFileCounter =   199
(PID.TID 0000.0001) ADWRITE:  tapeFileCounter =   200
(PID.TID 0000.0001) ADWRITE:  tapeFileCounter =   201
(PID.TID 0000.0001) ADWRITE:  tapeFileCounter =   202
(PID.TID 0000.0001) ADWRITE:  tapeFileCounter =   203
(PID.TID 0000.0001) ADWRITE:  tapeFileCounter =   204
(PID.TID 0000.0001) ADWRITE:  tapeFileCounter =   205
(PID.TID 0000.0001) ADWRITE:  tapeFileCounter =   206
(PID.TID 0000.0001) ADWRITE: tid,vid, irec, length, prec(x2)=    41    31     1    15456  8 64 fname=tapelev2_31_the_main_loop_wvel
(PID.TID 0000.0001) ADWRITE:  tapeFileCounter =   207
(PID.TID 0000.0001) ADWRITE:  tapeFileCounter =   208
(PID.TID 0000.0001) ADWRITE:  tapeFileCounter =   209
(PID.TID 0000.0001) ADWRITE:  tapeFileCounter =   210
(PID.TID 0000.0001) ADWRITE:  tapeFileCounter =   211
(PID.TID 0000.0001) ADWRITE:  tapeFileCounter =   212
(PID.TID 0000.0001) ADWRITE:  tapeFileCounter =   213
(PID.TID 0000.0001) ADWRITE:  tapeFileCounter =   214
(PID.TID 0000.0001) ADWRITE:  tapeFileCounter =   215
(PID.TID 0000.0001) ADWRITE:  tapeFileCounter =   216
(PID.TID 0000.0001) ADWRITE:  tapeFileCounter =   217
(PID.TID 0000.0001) ADWRITE:  tapeFileCounter =   218
(PID.TID 0000.0001) ADWRITE:  tapeFileCounter =   219
(PID.TID 0000.0001) ADWRITE:  tapeFileCounter =   220
(PID.TID 0000.0001) ADWRITE:  tapeFileCounter =   221
(PID.TID 0000.0001) ADWRITE:  tapeFileCounter =   222
(PID.TID 0000.0001) ADWRITE:  tapeFileCounter =   223
(PID.TID 0000.0001) ADWRITE:  tapeFileCounter =   224
(PID.TID 0000.0001) ADWRITE:  tapeFileCounter =   225
(PID.TID 0000.0001) ADWRITE:  tapeFileCounter =   226
(PID.TID 0000.0001) ADWRITE:  tapeFileCounter =   227
(PID.TID 0000.0001) ADWRITE:  tapeFileCounter =   228
(PID.TID 0000.0001) ADWRITE:  tapeFileCounter =   229
(PID.TID 0000.0001) ADWRITE: tid,vid, irec, length, prec(x2)=    41    32     1    15456  8 64 fname=tapelev2_32_the_main_loop_totphihyd
(PID.TID 0000.0001) ADWRITE:  tapeFileCounter =   230
(PID.TID 0000.0001) ADWRITE:  tapeFileCounter =   231
(PID.TID 0000.0001) ADWRITE:  tapeFileCounter =   232
(PID.TID 0000.0001) ADWRITE:  tapeFileCounter =   233
(PID.TID 0000.0001) ADWRITE:  tapeFileCounter =   234
(PID.TID 0000.0001) ADWRITE:  tapeFileCounter =   235
(PID.TID 0000.0001) ADWRITE:  tapeFileCounter =   236
(PID.TID 0000.0001) ADWRITE:  tapeFileCounter =   237
(PID.TID 0000.0001) ADWRITE:  tapeFileCounter =   238
(PID.TID 0000.0001) ADWRITE:  tapeFileCounter =   239
(PID.TID 0000.0001) ADWRITE:  tapeFileCounter =   240
(PID.TID 0000.0001) ADWRITE:  tapeFileCounter =   241
(PID.TID 0000.0001) ADWRITE:  tapeFileCounter =   242
(PID.TID 0000.0001) ADWRITE:  tapeFileCounter =   243
(PID.TID 0000.0001) ADWRITE:  tapeFileCounter =   244
(PID.TID 0000.0001) ADWRITE:  tapeFileCounter =   245
(PID.TID 0000.0001) ADWRITE:  tapeFileCounter =   246
(PID.TID 0000.0001) ADWRITE:  tapeFileCounter =   247
(PID.TID 0000.0001) ADWRITE:  tapeFileCounter =   248
(PID.TID 0000.0001) ADWRITE:  tapeFileCounter =   249
(PID.TID 0000.0001) ADWRITE:  tapeFileCounter =   250
(PID.TID 0000.0001) ADWRITE:  tapeFileCounter =   251
(PID.TID 0000.0001) ADWRITE:  tapeFileCounter =   252
(PID.TID 0000.0001) ADWRITE: tid,vid, irec, length, prec(x2)=    41    35     1    15456  8 64 fname=tapelev2_35_the_main_loop_uveld
(PID.TID 0000.0001) ADWRITE:  tapeFileCounter =   253
(PID.TID 0000.0001) ADWRITE:  tapeFileCounter =   254
(PID.TID 0000.0001) ADWRITE:  tapeFileCounter =   255
(PID.TID 0000.0001) ADWRITE:  tapeFileCounter =   256
(PID.TID 0000.0001) ADWRITE:  tapeFileCounter =   257
(PID.TID 0000.0001) ADWRITE:  tapeFileCounter =   258
(PID.TID 0000.0001) ADWRITE:  tapeFileCounter =   259
(PID.TID 0000.0001) ADWRITE:  tapeFileCounter =   260
(PID.TID 0000.0001) ADWRITE:  tapeFileCounter =   261
(PID.TID 0000.0001) ADWRITE:  tapeFileCounter =   262
(PID.TID 0000.0001) ADWRITE:  tapeFileCounter =   263
(PID.TID 0000.0001) ADWRITE:  tapeFileCounter =   264
(PID.TID 0000.0001) ADWRITE:  tapeFileCounter =   265
(PID.TID 0000.0001) ADWRITE:  tapeFileCounter =   266
(PID.TID 0000.0001) ADWRITE:  tapeFileCounter =   267
(PID.TID 0000.0001) ADWRITE:  tapeFileCounter =   268
(PID.TID 0000.0001) ADWRITE:  tapeFileCounter =   269
(PID.TID 0000.0001) ADWRITE:  tapeFileCounter =   270
(PID.TID 0000.0001) ADWRITE:  tapeFileCounter =   271
(PID.TID 0000.0001) ADWRITE:  tapeFileCounter =   272
(PID.TID 0000.0001) ADWRITE:  tapeFileCounter =   273
(PID.TID 0000.0001) ADWRITE:  tapeFileCounter =   274
(PID.TID 0000.0001) ADWRITE:  tapeFileCounter =   275
(PID.TID 0000.0001) ADWRITE: tid,vid, irec, length, prec(x2)=    41    36     1    15456  8 64 fname=tapelev2_36_the_main_loop_vveld
(PID.TID 0000.0001) ADWRITE:  tapeFileCounter =   276
(PID.TID 0000.0001) ADWRITE:  tapeFileCounter =   277
(PID.TID 0000.0001) ADWRITE:  tapeFileCounter =   278
(PID.TID 0000.0001) ADWRITE:  tapeFileCounter =   279
(PID.TID 0000.0001) ADWRITE:  tapeFileCounter =   280
(PID.TID 0000.0001) ADWRITE:  tapeFileCounter =   281
(PID.TID 0000.0001) ADWRITE:  tapeFileCounter =   282
(PID.TID 0000.0001) ADWRITE:  tapeFileCounter =   283
(PID.TID 0000.0001) ADWRITE:  tapeFileCounter =   284
(PID.TID 0000.0001) ADWRITE:  tapeFileCounter =   285
(PID.TID 0000.0001) ADWRITE:  tapeFileCounter =   286
(PID.TID 0000.0001) ADWRITE:  tapeFileCounter =   287
(PID.TID 0000.0001) ADWRITE:  tapeFileCounter =   288
(PID.TID 0000.0001) ADWRITE:  tapeFileCounter =   289
(PID.TID 0000.0001) ADWRITE:  tapeFileCounter =   290
(PID.TID 0000.0001) ADWRITE:  tapeFileCounter =   291
(PID.TID 0000.0001) ADWRITE:  tapeFileCounter =   292
(PID.TID 0000.0001) ADWRITE:  tapeFileCounter =   293
(PID.TID 0000.0001) ADWRITE:  tapeFileCounter =   294
(PID.TID 0000.0001) ADWRITE:  tapeFileCounter =   295
(PID.TID 0000.0001) ADWRITE:  tapeFileCounter =   296
(PID.TID 0000.0001) ADWRITE:  tapeFileCounter =   297
(PID.TID 0000.0001) ADWRITE:  tapeFileCounter =   298
(PID.TID 0000.0001) ADWRITE: tid,vid, irec, length, prec(x2)=    41    37     1      672  8 64 fname=tapelev2_37_the_main_loop_etanm1
(PID.TID 0000.0001) ADWRITE:  tapeFileCounter =   299
(PID.TID 0000.0001) ADWRITE: tid,vid, irec, length, prec(x2)=    41    38     1    15456  8 64 fname=tapelev2_38_the_main_loop_unm1
(PID.TID 0000.0001) ADWRITE:  tapeFileCounter =   300
(PID.TID 0000.0001) ADWRITE:  tapeFileCounter =   301
(PID.TID 0000.0001) ADWRITE:  tapeFileCounter =   302
(PID.TID 0000.0001) ADWRITE:  tapeFileCounter =   303
(PID.TID 0000.0001) ADWRITE:  tapeFileCounter =   304
(PID.TID 0000.0001) ADWRITE:  tapeFileCounter =   305
(PID.TID 0000.0001) ADWRITE:  tapeFileCounter =   306
(PID.TID 0000.0001) ADWRITE:  tapeFileCounter =   307
(PID.TID 0000.0001) ADWRITE:  tapeFileCounter =   308
(PID.TID 0000.0001) ADWRITE:  tapeFileCounter =   309
(PID.TID 0000.0001) ADWRITE:  tapeFileCounter =   310
(PID.TID 0000.0001) ADWRITE:  tapeFileCounter =   311
(PID.TID 0000.0001) ADWRITE:  tapeFileCounter =   312
(PID.TID 0000.0001) ADWRITE:  tapeFileCounter =   313
(PID.TID 0000.0001) ADWRITE:  tapeFileCounter =   314
(PID.TID 0000.0001) ADWRITE:  tapeFileCounter =   315
(PID.TID 0000.0001) ADWRITE:  tapeFileCounter =   316
(PID.TID 0000.0001) ADWRITE:  tapeFileCounter =   317
(PID.TID 0000.0001) ADWRITE:  tapeFileCounter =   318
(PID.TID 0000.0001) ADWRITE:  tapeFileCounter =   319
(PID.TID 0000.0001) ADWRITE:  tapeFileCounter =   320
(PID.TID 0000.0001) ADWRITE:  tapeFileCounter =   321
(PID.TID 0000.0001) ADWRITE:  tapeFileCounter =   322
(PID.TID 0000.0001) ADWRITE: tid,vid, irec, length, prec(x2)=    41    39     1    15456  8 64 fname=tapelev2_39_the_main_loop_vnm1
(PID.TID 0000.0001) ADWRITE:  tapeFileCounter =   323
(PID.TID 0000.0001) ADWRITE:  tapeFileCounter =   324
(PID.TID 0000.0001) ADWRITE:  tapeFileCounter =   325
(PID.TID 0000.0001) ADWRITE:  tapeFileCounter =   326
(PID.TID 0000.0001) ADWRITE:  tapeFileCounter =   327
(PID.TID 0000.0001) ADWRITE:  tapeFileCounter =   328
(PID.TID 0000.0001) ADWRITE:  tapeFileCounter =   329
(PID.TID 0000.0001) ADWRITE:  tapeFileCounter =   330
(PID.TID 0000.0001) ADWRITE:  tapeFileCounter =   331
(PID.TID 0000.0001) ADWRITE:  tapeFileCounter =   332
(PID.TID 0000.0001) ADWRITE:  tapeFileCounter =   333
(PID.TID 0000.0001) ADWRITE:  tapeFileCounter =   334
(PID.TID 0000.0001) ADWRITE:  tapeFileCounter =   335
(PID.TID 0000.0001) ADWRITE:  tapeFileCounter =   336
(PID.TID 0000.0001) ADWRITE:  tapeFileCounter =   337
(PID.TID 0000.0001) ADWRITE:  tapeFileCounter =   338
(PID.TID 0000.0001) ADWRITE:  tapeFileCounter =   339
(PID.TID 0000.0001) ADWRITE:  tapeFileCounter =   340
(PID.TID 0000.0001) ADWRITE:  tapeFileCounter =   341
(PID.TID 0000.0001) ADWRITE:  tapeFileCounter =   342
(PID.TID 0000.0001) ADWRITE:  tapeFileCounter =   343
(PID.TID 0000.0001) ADWRITE:  tapeFileCounter =   344
(PID.TID 0000.0001) ADWRITE:  tapeFileCounter =   345
(PID.TID 0000.0001) ADWRITE: tid,vid, irec, length, prec(x2)=    41    40     1      672  8 64 fname=tapelev2_40_the_main_loop_areamask0
(PID.TID 0000.0001) ADWRITE:  tapeFileCounter =   346
(PID.TID 0000.0001) ADWRITE: tid,vid, irec, length, prec(x2)=    41    41     1      672  8 64 fname=tapelev2_41_the_main_loop_areamask1
(PID.TID 0000.0001) ADWRITE:  tapeFileCounter =   347
(PID.TID 0000.0001) ADWRITE: tid,vid, irec, length, prec(x2)=    41    42     1      672  8 64 fname=tapelev2_42_the_main_loop_hflux0
(PID.TID 0000.0001) ADWRITE:  tapeFileCounter =   348
(PID.TID 0000.0001) ADWRITE: tid,vid, irec, length, prec(x2)=    41    43     1      672  8 64 fname=tapelev2_43_the_main_loop_hflux1
(PID.TID 0000.0001) ADWRITE:  tapeFileCounter =   349
(PID.TID 0000.0001) ADWRITE: tid,vid, irec, length, prec(x2)=    41    44     1      672  8 64 fname=tapelev2_44_the_main_loop_sflux0
(PID.TID 0000.0001) ADWRITE:  tapeFileCounter =   350
(PID.TID 0000.0001) ADWRITE: tid,vid, irec, length, prec(x2)=    41    45     1      672  8 64 fname=tapelev2_45_the_main_loop_sflux1
(PID.TID 0000.0001) ADWRITE:  tapeFileCounter =   351
(PID.TID 0000.0001) ADWRITE: tid,vid, irec, length, prec(x2)=    41    46     1      672  8 64 fname=tapelev2_46_the_main_loop_ustress0
(PID.TID 0000.0001) ADWRITE:  tapeFileCounter =   352
(PID.TID 0000.0001) ADWRITE: tid,vid, irec, length, prec(x2)=    41    47     1      672  8 64 fname=tapelev2_47_the_main_loop_ustress1
(PID.TID 0000.0001) ADWRITE:  tapeFileCounter =   353
(PID.TID 0000.0001) ADWRITE: tid,vid, irec, length, prec(x2)=    41    48     1      672  8 64 fname=tapelev2_48_the_main_loop_vstress0
(PID.TID 0000.0001) ADWRITE:  tapeFileCounter =   354
(PID.TID 0000.0001) ADWRITE: tid,vid, irec, length, prec(x2)=    41    49     1      672  8 64 fname=tapelev2_49_the_main_loop_vstress1
(PID.TID 0000.0001) ADWRITE:  tapeFileCounter =   355
(PID.TID 0000.0001) ADWRITE: tid,vid, irec, length, prec(x2)=    41    50     1      672  8 64 fname=tapelev2_50_the_main_loop_wspeed0
(PID.TID 0000.0001) ADWRITE:  tapeFileCounter =   356
(PID.TID 0000.0001) ADWRITE: tid,vid, irec, length, prec(x2)=    41    51     1      672  8 64 fname=tapelev2_51_the_main_loop_wspeed1
(PID.TID 0000.0001) ADWRITE:  tapeFileCounter =   357
(PID.TID 0000.0001) ADWRITE: tid,vid, irec, length, prec(x2)=    41    54     1      672  8 64 fname=tapelev2_54_the_main_loop_runoff0
(PID.TID 0000.0001) ADWRITE:  tapeFileCounter =   358
(PID.TID 0000.0001) ADWRITE: tid,vid, irec, length, prec(x2)=    41    55     1      672  8 64 fname=tapelev2_55_the_main_loop_runoff1
(PID.TID 0000.0001) ADWRITE:  tapeFileCounter =   359
(PID.TID 0000.0001) ADWRITE: tid,vid, irec, length, prec(x2)=    41    56     1      672  8 64 fname=tapelev2_56_the_main_loop_apressure0
(PID.TID 0000.0001) ADWRITE:  tapeFileCounter =   360
(PID.TID 0000.0001) ADWRITE: tid,vid, irec, length, prec(x2)=    41    57     1      672  8 64 fname=tapelev2_57_the_main_loop_apressure1
(PID.TID 0000.0001) ADWRITE:  tapeFileCounter =   361
(PID.TID 0000.0001) ADWRITE: tid,vid, irec, length, prec(x2)=    41    58     1      672  8 64 fname=tapelev2_58_the_main_loop_siceload
(PID.TID 0000.0001) ADWRITE:  tapeFileCounter =   362
(PID.TID 0000.0001) ADWRITE: tid,vid, irec, length, prec(x2)=    41    59     1      672  8 64 fname=tapelev2_59_the_main_loop_climsss0
(PID.TID 0000.0001) ADWRITE:  tapeFileCounter =   363
(PID.TID 0000.0001) ADWRITE: tid,vid, irec, length, prec(x2)=    41    60     1      672  8 64 fname=tapelev2_60_the_main_loop_climsss1
(PID.TID 0000.0001) ADWRITE:  tapeFileCounter =   364
(PID.TID 0000.0001) ADWRITE: tid,vid, irec, length, prec(x2)=    41    61     1      672  8 64 fname=tapelev2_61_the_main_loop_climsst0
(PID.TID 0000.0001) ADWRITE:  tapeFileCounter =   365
(PID.TID 0000.0001) ADWRITE: tid,vid, irec, length, prec(x2)=    41    62     1      672  8 64 fname=tapelev2_62_the_main_loop_climsst1
(PID.TID 0000.0001) ADWRITE:  tapeFileCounter =   366
(PID.TID 0000.0001) ADWRITE: tid,vid, irec, length, prec(x2)=    41    63     1      672  8 64 fname=tapelev2_63_the_main_loop_saltflx0
(PID.TID 0000.0001) ADWRITE:  tapeFileCounter =   367
(PID.TID 0000.0001) ADWRITE: tid,vid, irec, length, prec(x2)=    41    64     1      672  8 64 fname=tapelev2_64_the_main_loop_saltflx1
(PID.TID 0000.0001) ADWRITE:  tapeFileCounter =   368
(PID.TID 0000.0001) ADWRITE: tid,vid, irec, length, prec(x2)=    41    65     1      672  8 64 fname=tapelev2_65_the_main_loop_aqh0
(PID.TID 0000.0001) ADWRITE:  tapeFileCounter =   369
(PID.TID 0000.0001) ADWRITE: tid,vid, irec, length, prec(x2)=    41    66     1      672  8 64 fname=tapelev2_66_the_main_loop_aqh1
(PID.TID 0000.0001) ADWRITE:  tapeFileCounter =   370
(PID.TID 0000.0001) ADWRITE: tid,vid, irec, length, prec(x2)=    41    67     1      672  8 64 fname=tapelev2_67_the_main_loop_atemp0
(PID.TID 0000.0001) ADWRITE:  tapeFileCounter =   371
(PID.TID 0000.0001) ADWRITE: tid,vid, irec, length, prec(x2)=    41    68     1      672  8 64 fname=tapelev2_68_the_main_loop_atemp1
(PID.TID 0000.0001) ADWRITE:  tapeFileCounter =   372
(PID.TID 0000.0001) ADWRITE: tid,vid, irec, length, prec(x2)=    41    69     1      672  8 64 fname=tapelev2_69_the_main_loop_precip0
(PID.TID 0000.0001) ADWRITE:  tapeFileCounter =   373
(PID.TID 0000.0001) ADWRITE: tid,vid, irec, length, prec(x2)=    41    70     1      672  8 64 fname=tapelev2_70_the_main_loop_precip1
(PID.TID 0000.0001) ADWRITE:  tapeFileCounter =   374
(PID.TID 0000.0001) ADWRITE: tid,vid, irec, length, prec(x2)=    41    73     1      672  8 64 fname=tapelev2_73_the_main_loop_snowprecip0
(PID.TID 0000.0001) ADWRITE:  tapeFileCounter =   375
(PID.TID 0000.0001) ADWRITE: tid,vid, irec, length, prec(x2)=    41    74     1      672  8 64 fname=tapelev2_74_the_main_loop_snowprecip1
(PID.TID 0000.0001) ADWRITE:  tapeFileCounter =   376
(PID.TID 0000.0001) ADWRITE: tid,vid, irec, length, prec(x2)=    41    75     1      672  8 64 fname=tapelev2_75_the_main_loop_swdown0
(PID.TID 0000.0001) ADWRITE:  tapeFileCounter =   377
(PID.TID 0000.0001) ADWRITE: tid,vid, irec, length, prec(x2)=    41    76     1      672  8 64 fname=tapelev2_76_the_main_loop_swdown1
(PID.TID 0000.0001) ADWRITE:  tapeFileCounter =   378
(PID.TID 0000.0001) ADWRITE: tid,vid, irec, length, prec(x2)=    41    77     1      672  8 64 fname=tapelev2_77_the_main_loop_lwdown0
(PID.TID 0000.0001) ADWRITE:  tapeFileCounter =   379
(PID.TID 0000.0001) ADWRITE: tid,vid, irec, length, prec(x2)=    41    78     1      672  8 64 fname=tapelev2_78_the_main_loop_lwdown1
(PID.TID 0000.0001) ADWRITE:  tapeFileCounter =   380
(PID.TID 0000.0001) ADWRITE: tid,vid, irec, length, prec(x2)=    41    79     1      672  8 64 fname=tapelev2_79_the_main_loop_uwind0
(PID.TID 0000.0001) ADWRITE:  tapeFileCounter =   381
(PID.TID 0000.0001) ADWRITE: tid,vid, irec, length, prec(x2)=    41    80     1      672  8 64 fname=tapelev2_80_the_main_loop_uwind1
(PID.TID 0000.0001) ADWRITE:  tapeFileCounter =   382
(PID.TID 0000.0001) ADWRITE: tid,vid, irec, length, prec(x2)=    41    81     1      672  8 64 fname=tapelev2_81_the_main_loop_vwind0
(PID.TID 0000.0001) ADWRITE:  tapeFileCounter =   383
(PID.TID 0000.0001) ADWRITE: tid,vid, irec, length, prec(x2)=    41    82     1      672  8 64 fname=tapelev2_82_the_main_loop_vwind1
(PID.TID 0000.0001) ADWRITE:  tapeFileCounter =   384
(PID.TID 0000.0001) ADWRITE: tid,vid, irec, length, prec(x2)=    41    83     1     6048  8 64 fname=tapelev2_83_the_main_loop_xx_gentim2d
(PID.TID 0000.0001) ADWRITE:  tapeFileCounter =   385
(PID.TID 0000.0001) ADWRITE:  tapeFileCounter =   386
(PID.TID 0000.0001) ADWRITE:  tapeFileCounter =   387
(PID.TID 0000.0001) ADWRITE:  tapeFileCounter =   388
(PID.TID 0000.0001) ADWRITE:  tapeFileCounter =   389
(PID.TID 0000.0001) ADWRITE:  tapeFileCounter =   390
(PID.TID 0000.0001) ADWRITE:  tapeFileCounter =   391
(PID.TID 0000.0001) ADWRITE:  tapeFileCounter =   392
(PID.TID 0000.0001) ADWRITE:  tapeFileCounter =   393
(PID.TID 0000.0001) ADWRITE: tid,vid, irec, length, prec(x2)=    41    84     1     6048  8 64 fname=tapelev2_84_the_main_loop_xx_gentim2d0
(PID.TID 0000.0001) ADWRITE:  tapeFileCounter =   394
(PID.TID 0000.0001) ADWRITE:  tapeFileCounter =   395
(PID.TID 0000.0001) ADWRITE:  tapeFileCounter =   396
(PID.TID 0000.0001) ADWRITE:  tapeFileCounter =   397
(PID.TID 0000.0001) ADWRITE:  tapeFileCounter =   398
(PID.TID 0000.0001) ADWRITE:  tapeFileCounter =   399
(PID.TID 0000.0001) ADWRITE:  tapeFileCounter =   400
(PID.TID 0000.0001) ADWRITE:  tapeFileCounter =   401
(PID.TID 0000.0001) ADWRITE:  tapeFileCounter =   402
(PID.TID 0000.0001) ADWRITE: tid,vid, irec, length, prec(x2)=    41    85     1     6048  8 64 fname=tapelev2_85_the_main_loop_xx_gentim2d1
(PID.TID 0000.0001) ADWRITE:  tapeFileCounter =   403
(PID.TID 0000.0001) ADWRITE:  tapeFileCounter =   404
(PID.TID 0000.0001) ADWRITE:  tapeFileCounter =   405
(PID.TID 0000.0001) ADWRITE:  tapeFileCounter =   406
(PID.TID 0000.0001) ADWRITE:  tapeFileCounter =   407
(PID.TID 0000.0001) ADWRITE:  tapeFileCounter =   408
(PID.TID 0000.0001) ADWRITE:  tapeFileCounter =   409
(PID.TID 0000.0001) ADWRITE:  tapeFileCounter =   410
(PID.TID 0000.0001) ADWRITE:  tapeFileCounter =   411
(PID.TID 0000.0001) ADWRITE: tid,vid, irec, length, prec(x2)=    41    87     1      672  8 64 fname=tapelev2_87_the_main_loop_phihydlow
(PID.TID 0000.0001) ADWRITE:  tapeFileCounter =   412
(PID.TID 0000.0001) ADWRITE: tid,vid, irec, length, prec(x2)=    41    88     1      672  8 64 fname=tapelev2_88_the_main_loop_area
(PID.TID 0000.0001) ADWRITE:  tapeFileCounter =   413
(PID.TID 0000.0001) ADWRITE: tid,vid, irec, length, prec(x2)=    41    89     1      672  8 64 fname=tapelev2_89_the_main_loop_heff
(PID.TID 0000.0001) ADWRITE:  tapeFileCounter =   414
(PID.TID 0000.0001) ADWRITE: tid,vid, irec, length, prec(x2)=    41    90     1      672  8 64 fname=tapelev2_90_the_main_loop_hsnow
(PID.TID 0000.0001) ADWRITE:  tapeFileCounter =   415
(PID.TID 0000.0001) ADWRITE: tid,vid, irec, length, prec(x2)=    41    92     1      672  8 64 fname=tapelev2_92_the_main_loop_uice
(PID.TID 0000.0001) ADWRITE:  tapeFileCounter =   416
(PID.TID 0000.0001) ADWRITE: tid,vid, irec, length, prec(x2)=    41    93     1      672  8 64 fname=tapelev2_93_the_main_loop_vice
(PID.TID 0000.0001) ADWRITE:  tapeFileCounter =   417
(PID.TID 0000.0001) ADWRITE: tid,vid, irec, length, prec(x2)=    41    96     1     4704  8 64 fname=tapelev2_96_the_main_loop_tices
(PID.TID 0000.0001) ADWRITE:  tapeFileCounter =   418
(PID.TID 0000.0001) ADWRITE:  tapeFileCounter =   419
(PID.TID 0000.0001) ADWRITE:  tapeFileCounter =   420
(PID.TID 0000.0001) ADWRITE:  tapeFileCounter =   421
(PID.TID 0000.0001) ADWRITE:  tapeFileCounter =   422
(PID.TID 0000.0001) ADWRITE:  tapeFileCounter =   423
(PID.TID 0000.0001) ADWRITE:  tapeFileCounter =   424
(PID.TID 0000.0001) ADWRITE: tid,vid, irec, length, prec(x2)=    41    97     1      672  8 64 fname=tapelev2_97_the_main_loop_dwatn
(PID.TID 0000.0001) ADWRITE:  tapeFileCounter =   425
(PID.TID 0000.0001) ADWRITE: tid,vid, irec, length, prec(x2)=    41    98     1      672  8 64 fname=tapelev2_98_the_main_loop_stressdivergencex
(PID.TID 0000.0001) ADWRITE:  tapeFileCounter =   426
(PID.TID 0000.0001) ADWRITE: tid,vid, irec, length, prec(x2)=    41    99     1      672  8 64 fname=tapelev2_99_the_main_loop_stressdivergencey
(PID.TID 0000.0001) ADWRITE:  tapeFileCounter =   427
(PID.TID 0000.0001) ADWRITE: tid,vid, irec, length, prec(x2)=    41   100     1      672  8 64 fname=tapelev2_100_the_main_loop_seaice_sigma1
(PID.TID 0000.0001) ADWRITE:  tapeFileCounter =   428
(PID.TID 0000.0001) ADWRITE: tid,vid, irec, length, prec(x2)=    41   101     1      672  8 64 fname=tapelev2_101_the_main_loop_seaice_sigma2
(PID.TID 0000.0001) ADWRITE:  tapeFileCounter =   429
(PID.TID 0000.0001) ADWRITE: tid,vid, irec, length, prec(x2)=    41   102     1      672  8 64 fname=tapelev2_102_the_main_loop_seaice_sigma12
(PID.TID 0000.0001) ADWRITE:  tapeFileCounter =   430
(PID.TID 0000.0001) ADWRITE: tid,vid, irec, length, prec(x2)=    41   103     1      672  8 64 fname=tapelev2_103_the_main_loop_hsalt
(PID.TID 0000.0001) ADWRITE:  tapeFileCounter =   431
(PID.TID 0000.0001) whio : write lev 2 rec   1
(PID.TID 0000.0001)  MDS_READ_FIELD: opening global file: xx_atemp.effective.0000000001.data
(PID.TID 0000.0001) EXF_SET_FLD: processing field "climsss",  file: SSS_monthly.labsea1979
(PID.TID 0000.0001) EXF_SET_FLD:   myIter, count0, count1:         8      1      2
(PID.TID 0000.0001) EXF_SET_FLD:   first, changed, fac:   F   F    0.48907103825136611
(PID.TID 0000.0001) EXF_SET_FLD: processing field "uwind",  file: u10m.labsea1979
(PID.TID 0000.0001) EXF_SET_FLD:   myIter, count0, count1:         8      1      2
(PID.TID 0000.0001) EXF_SET_FLD:   first, changed, fac:   F   F    0.48907103825136611
(PID.TID 0000.0001) EXF_SET_FLD: processing field "vwind",  file: v10m.labsea1979
(PID.TID 0000.0001) EXF_SET_FLD:   myIter, count0, count1:         8      1      2
(PID.TID 0000.0001) EXF_SET_FLD:   first, changed, fac:   F   F    0.48907103825136611
(PID.TID 0000.0001) EXF_SET_FLD: processing field "atemp",  file: tair.labsea1979
(PID.TID 0000.0001) EXF_SET_FLD:   myIter, count0, count1:         8      1      2
(PID.TID 0000.0001) EXF_SET_FLD:   first, changed, fac:   F   F    0.48907103825136611
(PID.TID 0000.0001) EXF_SET_FLD: processing field "aqh",  file: qa.labsea1979
(PID.TID 0000.0001) EXF_SET_FLD:   myIter, count0, count1:         8      1      2
(PID.TID 0000.0001) EXF_SET_FLD:   first, changed, fac:   F   F    0.48907103825136611
(PID.TID 0000.0001) EXF_SET_FLD: processing field "precip",  file: prate.labsea1979
(PID.TID 0000.0001) EXF_SET_FLD:   myIter, count0, count1:         8      1      2
(PID.TID 0000.0001) EXF_SET_FLD:   first, changed, fac:   F   F    0.48907103825136611
(PID.TID 0000.0001) EXF_SET_FLD: processing field "swdown",  file: fsh.labsea1979
(PID.TID 0000.0001) EXF_SET_FLD:   myIter, count0, count1:         8      1      2
(PID.TID 0000.0001) EXF_SET_FLD:   first, changed, fac:   F   F    0.48907103825136611
(PID.TID 0000.0001) EXF_SET_FLD: processing field "lwdown",  file: flo.labsea1979
(PID.TID 0000.0001) EXF_SET_FLD:   myIter, count0, count1:         8      1      2
(PID.TID 0000.0001) EXF_SET_FLD:   first, changed, fac:   F   F    0.48907103825136611
DEBUG_STATS_RL: Uice pre  iter (SEAICE_LSR  1)  min= -1.95687208100102E-02
DEBUG_STATS_RL: Uice pre  iter (SEAICE_LSR  1)  max=  2.56695252608154E-01
DEBUG_STATS_RL: Uice pre  iter (SEAICE_LSR  1) mean=  6.10102626008752E-02
DEBUG_STATS_RL: Uice pre  iter (SEAICE_LSR  1) S.D.=  7.26515133443026E-02
DEBUG_STATS_RL: Vice pre  iter (SEAICE_LSR  1)  min= -1.74351841639993E-01
DEBUG_STATS_RL: Vice pre  iter (SEAICE_LSR  1)  max=  6.17815719868620E-02
DEBUG_STATS_RL: Vice pre  iter (SEAICE_LSR  1) mean= -5.34332922103127E-02
DEBUG_STATS_RL: Vice pre  iter (SEAICE_LSR  1) S.D.=  5.91879685811095E-02
DEBUG_STATS_RL: Uice pre  iter (SEAICE_LSR  2)  min= -2.10631196463131E-02
DEBUG_STATS_RL: Uice pre  iter (SEAICE_LSR  2)  max=  2.47741110498678E-01
DEBUG_STATS_RL: Uice pre  iter (SEAICE_LSR  2) mean=  5.58563099525574E-02
DEBUG_STATS_RL: Uice pre  iter (SEAICE_LSR  2) S.D.=  6.83562873807025E-02
DEBUG_STATS_RL: Vice pre  iter (SEAICE_LSR  2)  min= -1.71270231909308E-01
DEBUG_STATS_RL: Vice pre  iter (SEAICE_LSR  2)  max=  5.00408736690829E-02
DEBUG_STATS_RL: Vice pre  iter (SEAICE_LSR  2) mean= -5.35471708937630E-02
DEBUG_STATS_RL: Vice pre  iter (SEAICE_LSR  2) S.D.=  5.75117440524867E-02
DEBUG_STATS_RL:                EtaN (DYNAMICS)  min= -1.16069768363258E-01
DEBUG_STATS_RL:                EtaN (DYNAMICS)  max=  3.26639972250553E-01
DEBUG_STATS_RL:                EtaN (DYNAMICS) mean= -4.23481440025525E-03
DEBUG_STATS_RL:                EtaN (DYNAMICS) S.D.=  6.63305979494085E-02
DEBUG_STATS_RL:                Uvel (DYNAMICS)  min= -4.34802359621465E-02
DEBUG_STATS_RL:                Uvel (DYNAMICS)  max=  9.99752242998808E-02
DEBUG_STATS_RL:                Uvel (DYNAMICS) mean=  3.48264152589957E-03
DEBUG_STATS_RL:                Uvel (DYNAMICS) S.D.=  1.35343125506116E-02
DEBUG_STATS_RL:                Vvel (DYNAMICS)  min= -1.33439207289254E-01
DEBUG_STATS_RL:                Vvel (DYNAMICS)  max=  5.60260700766945E-02
DEBUG_STATS_RL:                Vvel (DYNAMICS) mean= -4.02696574872961E-03
DEBUG_STATS_RL:                Vvel (DYNAMICS) S.D.=  1.80273334212797E-02
DEBUG_STATS_RL:                Wvel (DYNAMICS)  min= -2.73348162229354E-04
DEBUG_STATS_RL:                Wvel (DYNAMICS)  max=  3.13596923283671E-04
DEBUG_STATS_RL:                Wvel (DYNAMICS) mean=  4.73709411313520E-08
DEBUG_STATS_RL:                Wvel (DYNAMICS) S.D.=  2.82661454219204E-05
DEBUG_STATS_RL:               Theta (DYNAMICS)  min= -1.95943609422387E+00
DEBUG_STATS_RL:               Theta (DYNAMICS)  max=  1.32225113409295E+01
DEBUG_STATS_RL:               Theta (DYNAMICS) mean=  2.41480286619418E+00
DEBUG_STATS_RL:               Theta (DYNAMICS) S.D.=  2.57398860030337E+00
DEBUG_STATS_RL:                Salt (DYNAMICS)  min=  2.76387468555707E+01
DEBUG_STATS_RL:                Salt (DYNAMICS)  max=  3.54510358217953E+01
DEBUG_STATS_RL:                Salt (DYNAMICS) mean=  3.39367601804946E+01
DEBUG_STATS_RL:                Salt (DYNAMICS) S.D.=  1.15334890349729E+00
DEBUG_STATS_RL:                  Gu (DYNAMICS)  min= -5.98368153074020E-02
DEBUG_STATS_RL:                  Gu (DYNAMICS)  max=  9.68873121299251E-02
DEBUG_STATS_RL:                  Gu (DYNAMICS) mean=  1.30194972947503E-03
DEBUG_STATS_RL:                  Gu (DYNAMICS) S.D.=  1.61566615235326E-02
DEBUG_STATS_RL:                  Gv (DYNAMICS)  min= -1.36271217267994E-01
DEBUG_STATS_RL:                  Gv (DYNAMICS)  max=  3.83573237348583E-02
DEBUG_STATS_RL:                  Gv (DYNAMICS) mean= -7.71950831958569E-03
DEBUG_STATS_RL:                  Gv (DYNAMICS) S.D.=  1.77533563667874E-02
DEBUG_STATS_RL:               GuNm1 (DYNAMICS)  min= -3.40955168137046E-07
DEBUG_STATS_RL:               GuNm1 (DYNAMICS)  max=  1.82641400821284E-07
DEBUG_STATS_RL:               GuNm1 (DYNAMICS) mean= -2.79196714442664E-09
DEBUG_STATS_RL:               GuNm1 (DYNAMICS) S.D.=  4.07453533304239E-08
DEBUG_STATS_RL:               GvNm1 (DYNAMICS)  min= -2.14559263714299E-07
DEBUG_STATS_RL:               GvNm1 (DYNAMICS)  max=  1.94148824775153E-07
DEBUG_STATS_RL:               GvNm1 (DYNAMICS) mean= -4.04169206802268E-10
DEBUG_STATS_RL:               GvNm1 (DYNAMICS) S.D.=  4.19222729579498E-08
DEBUG_STATS_RL:               GtNm1 (DYNAMICS)  min=  0.00000000000000E+00
DEBUG_STATS_RL:               GtNm1 (DYNAMICS)  max=  0.00000000000000E+00
DEBUG_STATS_RL:               GtNm1 (DYNAMICS) mean=  0.00000000000000E+00
DEBUG_STATS_RL:               GtNm1 (DYNAMICS) S.D.=  0.00000000000000E+00
DEBUG_STATS_RL:               GsNm1 (DYNAMICS)  min=  0.00000000000000E+00
DEBUG_STATS_RL:               GsNm1 (DYNAMICS)  max=  0.00000000000000E+00
DEBUG_STATS_RL:               GsNm1 (DYNAMICS) mean=  0.00000000000000E+00
DEBUG_STATS_RL:               GsNm1 (DYNAMICS) S.D.=  0.00000000000000E+00
DEBUG_STATS_RL:    cg2d_b (SOLVE_FOR_PRESSURE)  min= -7.29975929937793E+03
DEBUG_STATS_RL:    cg2d_b (SOLVE_FOR_PRESSURE)  max=  2.19478299507054E+03
DEBUG_STATS_RL:    cg2d_b (SOLVE_FOR_PRESSURE) mean= -3.96767063648440E-13
DEBUG_STATS_RL:    cg2d_b (SOLVE_FOR_PRESSURE) S.D.=  8.94146290227710E+02
 cg2d: Sum(rhs),rhsMax =  -6.92501611609941E-15  1.17489186776824E+00
DEBUG_STATS_RL:    cg2d_x (SOLVE_FOR_PRESSURE)  min= -1.08771127617308E+00
DEBUG_STATS_RL:    cg2d_x (SOLVE_FOR_PRESSURE)  max=  3.12128519797376E+00
DEBUG_STATS_RL:    cg2d_x (SOLVE_FOR_PRESSURE) mean= -4.19588396852395E-02
DEBUG_STATS_RL:    cg2d_x (SOLVE_FOR_PRESSURE) S.D.=  6.20262122262901E-01
DEBUG_STATS_RL:          Uvel (THERMODYNAMICS)  min= -5.12375198242059E-02
DEBUG_STATS_RL:          Uvel (THERMODYNAMICS)  max=  8.84896388076339E-02
DEBUG_STATS_RL:          Uvel (THERMODYNAMICS) mean=  2.55769138538291E-03
DEBUG_STATS_RL:          Uvel (THERMODYNAMICS) S.D.=  1.29064693910456E-02
DEBUG_STATS_RL:          Vvel (THERMODYNAMICS)  min= -1.29344604199479E-01
DEBUG_STATS_RL:          Vvel (THERMODYNAMICS)  max=  4.58633296186249E-02
DEBUG_STATS_RL:          Vvel (THERMODYNAMICS) mean= -4.14107843006319E-03
DEBUG_STATS_RL:          Vvel (THERMODYNAMICS) S.D.=  1.66082836245794E-02
DEBUG_STATS_RL:          Wvel (THERMODYNAMICS)  min= -2.60848991809587E-04
DEBUG_STATS_RL:          Wvel (THERMODYNAMICS)  max=  2.85731299794369E-04
DEBUG_STATS_RL:          Wvel (THERMODYNAMICS) mean=  1.36793666178293E-07
DEBUG_STATS_RL:          Wvel (THERMODYNAMICS) S.D.=  2.70580054557619E-05
DEBUG_STATS_RL:         Theta (THERMODYNAMICS)  min= -1.95932886747261E+00
DEBUG_STATS_RL:         Theta (THERMODYNAMICS)  max=  1.32010303660582E+01
DEBUG_STATS_RL:         Theta (THERMODYNAMICS) mean=  2.41452315045422E+00
DEBUG_STATS_RL:         Theta (THERMODYNAMICS) S.D.=  2.57350774067654E+00
DEBUG_STATS_RL:          Salt (THERMODYNAMICS)  min=  2.76435505129419E+01
DEBUG_STATS_RL:          Salt (THERMODYNAMICS)  max=  3.54508660670958E+01
DEBUG_STATS_RL:          Salt (THERMODYNAMICS) mean=  3.39367749828872E+01
DEBUG_STATS_RL:          Salt (THERMODYNAMICS) S.D.=  1.15309738582237E+00
DEBUG_STATS_RL:         GtNm1 (THERMODYNAMICS)  min=  0.00000000000000E+00
DEBUG_STATS_RL:         GtNm1 (THERMODYNAMICS)  max=  0.00000000000000E+00
DEBUG_STATS_RL:         GtNm1 (THERMODYNAMICS) mean=  0.00000000000000E+00
DEBUG_STATS_RL:         GtNm1 (THERMODYNAMICS) S.D.=  0.00000000000000E+00
DEBUG_STATS_RL:         GsNm1 (THERMODYNAMICS)  min=  0.00000000000000E+00
DEBUG_STATS_RL:         GsNm1 (THERMODYNAMICS)  max=  0.00000000000000E+00
DEBUG_STATS_RL:         GsNm1 (THERMODYNAMICS) mean=  0.00000000000000E+00
DEBUG_STATS_RL:         GsNm1 (THERMODYNAMICS) S.D.=  0.00000000000000E+00
(PID.TID 0000.0001) Did not write pickup because writePickupAtEnd = FALSE
(PID.TID 0000.0001) ADWRITE: tid,vid, irec, length, prec(x2)=    41     1     2      672  8 64 fname=tapelev2_1_the_main_loop_etan
(PID.TID 0000.0001) ADWRITE:  tapeFileCounter =     1
(PID.TID 0000.0001) ADWRITE: tid,vid, irec, length, prec(x2)=    41     2     2      672  8 64 fname=tapelev2_2_the_main_loop_taux0
(PID.TID 0000.0001) ADWRITE:  tapeFileCounter =     2
(PID.TID 0000.0001) ADWRITE: tid,vid, irec, length, prec(x2)=    41     3     2      672  8 64 fname=tapelev2_3_the_main_loop_taux1
(PID.TID 0000.0001) ADWRITE:  tapeFileCounter =     3
(PID.TID 0000.0001) ADWRITE: tid,vid, irec, length, prec(x2)=    41     4     2      672  8 64 fname=tapelev2_4_the_main_loop_tauy0
(PID.TID 0000.0001) ADWRITE:  tapeFileCounter =     4
(PID.TID 0000.0001) ADWRITE: tid,vid, irec, length, prec(x2)=    41     5     2      672  8 64 fname=tapelev2_5_the_main_loop_tauy1
(PID.TID 0000.0001) ADWRITE:  tapeFileCounter =     5
(PID.TID 0000.0001) ADWRITE: tid,vid, irec, length, prec(x2)=    41     6     2      672  8 64 fname=tapelev2_6_the_main_loop_qnet0
(PID.TID 0000.0001) ADWRITE:  tapeFileCounter =     6
(PID.TID 0000.0001) ADWRITE: tid,vid, irec, length, prec(x2)=    41     7     2      672  8 64 fname=tapelev2_7_the_main_loop_qnet1
(PID.TID 0000.0001) ADWRITE:  tapeFileCounter =     7
(PID.TID 0000.0001) ADWRITE: tid,vid, irec, length, prec(x2)=    41     8     2      672  8 64 fname=tapelev2_8_the_main_loop_empmr0
(PID.TID 0000.0001) ADWRITE:  tapeFileCounter =     8
(PID.TID 0000.0001) ADWRITE: tid,vid, irec, length, prec(x2)=    41     9     2      672  8 64 fname=tapelev2_9_the_main_loop_empmr1
(PID.TID 0000.0001) ADWRITE:  tapeFileCounter =     9
(PID.TID 0000.0001) ADWRITE: tid,vid, irec, length, prec(x2)=    41    10     2      672  8 64 fname=tapelev2_10_the_main_loop_sst0
(PID.TID 0000.0001) ADWRITE:  tapeFileCounter =    10
(PID.TID 0000.0001) ADWRITE: tid,vid, irec, length, prec(x2)=    41    11     2      672  8 64 fname=tapelev2_11_the_main_loop_sst1
(PID.TID 0000.0001) ADWRITE:  tapeFileCounter =    11
(PID.TID 0000.0001) ADWRITE: tid,vid, irec, length, prec(x2)=    41    12     2      672  8 64 fname=tapelev2_12_the_main_loop_sss0
(PID.TID 0000.0001) ADWRITE:  tapeFileCounter =    12
(PID.TID 0000.0001) ADWRITE: tid,vid, irec, length, prec(x2)=    41    13     2      672  8 64 fname=tapelev2_13_the_main_loop_sss1
(PID.TID 0000.0001) ADWRITE:  tapeFileCounter =    13
(PID.TID 0000.0001) ADWRITE: tid,vid, irec, length, prec(x2)=    41    14     2      672  8 64 fname=tapelev2_14_the_main_loop_saltflux0
(PID.TID 0000.0001) ADWRITE:  tapeFileCounter =    14
(PID.TID 0000.0001) ADWRITE: tid,vid, irec, length, prec(x2)=    41    15     2      672  8 64 fname=tapelev2_15_the_main_loop_saltflux1
(PID.TID 0000.0001) ADWRITE:  tapeFileCounter =    15
(PID.TID 0000.0001) ADWRITE: tid,vid, irec, length, prec(x2)=    41    16     2      672  8 64 fname=tapelev2_16_the_main_loop_qsw0
(PID.TID 0000.0001) ADWRITE:  tapeFileCounter =    16
(PID.TID 0000.0001) ADWRITE: tid,vid, irec, length, prec(x2)=    41    17     2      672  8 64 fname=tapelev2_17_the_main_loop_qsw1
(PID.TID 0000.0001) ADWRITE:  tapeFileCounter =    17
(PID.TID 0000.0001) ADWRITE: tid,vid, irec, length, prec(x2)=    41    18     2      672  8 64 fname=tapelev2_18_the_main_loop_pload0
(PID.TID 0000.0001) ADWRITE:  tapeFileCounter =    18
(PID.TID 0000.0001) ADWRITE: tid,vid, irec, length, prec(x2)=    41    19     2      672  8 64 fname=tapelev2_19_the_main_loop_pload1
(PID.TID 0000.0001) ADWRITE:  tapeFileCounter =    19
(PID.TID 0000.0001) ADWRITE: tid,vid, irec, length, prec(x2)=    41    20     2      672  8 64 fname=tapelev2_20_the_main_loop_etah
(PID.TID 0000.0001) ADWRITE:  tapeFileCounter =    20
(PID.TID 0000.0001) ADWRITE: tid,vid, irec, length, prec(x2)=    41    21     2      672  8 64 fname=tapelev2_21_the_main_loop_detahdt
(PID.TID 0000.0001) ADWRITE:  tapeFileCounter =    21
(PID.TID 0000.0001) ADWRITE: tid,vid, irec, length, prec(x2)=    41    22     2      672  8 64 fname=tapelev2_22_the_main_loop_pmepr
(PID.TID 0000.0001) ADWRITE:  tapeFileCounter =    22
(PID.TID 0000.0001) ADWRITE: tid,vid, irec, length, prec(x2)=    41    23     2    15456  8 64 fname=tapelev2_23_the_main_loop_gtnm1
(PID.TID 0000.0001) ADWRITE:  tapeFileCounter =    23
(PID.TID 0000.0001) ADWRITE:  tapeFileCounter =    24
(PID.TID 0000.0001) ADWRITE:  tapeFileCounter =    25
(PID.TID 0000.0001) ADWRITE:  tapeFileCounter =    26
(PID.TID 0000.0001) ADWRITE:  tapeFileCounter =    27
(PID.TID 0000.0001) ADWRITE:  tapeFileCounter =    28
(PID.TID 0000.0001) ADWRITE:  tapeFileCounter =    29
(PID.TID 0000.0001) ADWRITE:  tapeFileCounter =    30
(PID.TID 0000.0001) ADWRITE:  tapeFileCounter =    31
(PID.TID 0000.0001) ADWRITE:  tapeFileCounter =    32
(PID.TID 0000.0001) ADWRITE:  tapeFileCounter =    33
(PID.TID 0000.0001) ADWRITE:  tapeFileCounter =    34
(PID.TID 0000.0001) ADWRITE:  tapeFileCounter =    35
(PID.TID 0000.0001) ADWRITE:  tapeFileCounter =    36
(PID.TID 0000.0001) ADWRITE:  tapeFileCounter =    37
(PID.TID 0000.0001) ADWRITE:  tapeFileCounter =    38
(PID.TID 0000.0001) ADWRITE:  tapeFileCounter =    39
(PID.TID 0000.0001) ADWRITE:  tapeFileCounter =    40
(PID.TID 0000.0001) ADWRITE:  tapeFileCounter =    41
(PID.TID 0000.0001) ADWRITE:  tapeFileCounter =    42
(PID.TID 0000.0001) ADWRITE:  tapeFileCounter =    43
(PID.TID 0000.0001) ADWRITE:  tapeFileCounter =    44
(PID.TID 0000.0001) ADWRITE:  tapeFileCounter =    45
(PID.TID 0000.0001) ADWRITE: tid,vid, irec, length, prec(x2)=    41    24     2    15456  8 64 fname=tapelev2_24_the_main_loop_gsnm1
(PID.TID 0000.0001) ADWRITE:  tapeFileCounter =    46
(PID.TID 0000.0001) ADWRITE:  tapeFileCounter =    47
(PID.TID 0000.0001) ADWRITE:  tapeFileCounter =    48
(PID.TID 0000.0001) ADWRITE:  tapeFileCounter =    49
(PID.TID 0000.0001) ADWRITE:  tapeFileCounter =    50
(PID.TID 0000.0001) ADWRITE:  tapeFileCounter =    51
(PID.TID 0000.0001) ADWRITE:  tapeFileCounter =    52
(PID.TID 0000.0001) ADWRITE:  tapeFileCounter =    53
(PID.TID 0000.0001) ADWRITE:  tapeFileCounter =    54
(PID.TID 0000.0001) ADWRITE:  tapeFileCounter =    55
(PID.TID 0000.0001) ADWRITE:  tapeFileCounter =    56
(PID.TID 0000.0001) ADWRITE:  tapeFileCounter =    57
(PID.TID 0000.0001) ADWRITE:  tapeFileCounter =    58
(PID.TID 0000.0001) ADWRITE:  tapeFileCounter =    59
(PID.TID 0000.0001) ADWRITE:  tapeFileCounter =    60
(PID.TID 0000.0001) ADWRITE:  tapeFileCounter =    61
(PID.TID 0000.0001) ADWRITE:  tapeFileCounter =    62
(PID.TID 0000.0001) ADWRITE:  tapeFileCounter =    63
(PID.TID 0000.0001) ADWRITE:  tapeFileCounter =    64
(PID.TID 0000.0001) ADWRITE:  tapeFileCounter =    65
(PID.TID 0000.0001) ADWRITE:  tapeFileCounter =    66
(PID.TID 0000.0001) ADWRITE:  tapeFileCounter =    67
(PID.TID 0000.0001) ADWRITE:  tapeFileCounter =    68
(PID.TID 0000.0001) ADWRITE: tid,vid, irec, length, prec(x2)=    41    25     2    15456  8 64 fname=tapelev2_25_the_main_loop_gunm1
(PID.TID 0000.0001) ADWRITE:  tapeFileCounter =    69
(PID.TID 0000.0001) ADWRITE:  tapeFileCounter =    70
(PID.TID 0000.0001) ADWRITE:  tapeFileCounter =    71
(PID.TID 0000.0001) ADWRITE:  tapeFileCounter =    72
(PID.TID 0000.0001) ADWRITE:  tapeFileCounter =    73
(PID.TID 0000.0001) ADWRITE:  tapeFileCounter =    74
(PID.TID 0000.0001) ADWRITE:  tapeFileCounter =    75
(PID.TID 0000.0001) ADWRITE:  tapeFileCounter =    76
(PID.TID 0000.0001) ADWRITE:  tapeFileCounter =    77
(PID.TID 0000.0001) ADWRITE:  tapeFileCounter =    78
(PID.TID 0000.0001) ADWRITE:  tapeFileCounter =    79
(PID.TID 0000.0001) ADWRITE:  tapeFileCounter =    80
(PID.TID 0000.0001) ADWRITE:  tapeFileCounter =    81
(PID.TID 0000.0001) ADWRITE:  tapeFileCounter =    82
(PID.TID 0000.0001) ADWRITE:  tapeFileCounter =    83
(PID.TID 0000.0001) ADWRITE:  tapeFileCounter =    84
(PID.TID 0000.0001) ADWRITE:  tapeFileCounter =    85
(PID.TID 0000.0001) ADWRITE:  tapeFileCounter =    86
(PID.TID 0000.0001) ADWRITE:  tapeFileCounter =    87
(PID.TID 0000.0001) ADWRITE:  tapeFileCounter =    88
(PID.TID 0000.0001) ADWRITE:  tapeFileCounter =    89
(PID.TID 0000.0001) ADWRITE:  tapeFileCounter =    90
(PID.TID 0000.0001) ADWRITE:  tapeFileCounter =    91
(PID.TID 0000.0001) ADWRITE: tid,vid, irec, length, prec(x2)=    41    26     2    15456  8 64 fname=tapelev2_26_the_main_loop_gvnm1
(PID.TID 0000.0001) ADWRITE:  tapeFileCounter =    92
(PID.TID 0000.0001) ADWRITE:  tapeFileCounter =    93
(PID.TID 0000.0001) ADWRITE:  tapeFileCounter =    94
(PID.TID 0000.0001) ADWRITE:  tapeFileCounter =    95
(PID.TID 0000.0001) ADWRITE:  tapeFileCounter =    96
(PID.TID 0000.0001) ADWRITE:  tapeFileCounter =    97
(PID.TID 0000.0001) ADWRITE:  tapeFileCounter =    98
(PID.TID 0000.0001) ADWRITE:  tapeFileCounter =    99
(PID.TID 0000.0001) ADWRITE:  tapeFileCounter =   100
(PID.TID 0000.0001) ADWRITE:  tapeFileCounter =   101
(PID.TID 0000.0001) ADWRITE:  tapeFileCounter =   102
(PID.TID 0000.0001) ADWRITE:  tapeFileCounter =   103
(PID.TID 0000.0001) ADWRITE:  tapeFileCounter =   104
(PID.TID 0000.0001) ADWRITE:  tapeFileCounter =   105
(PID.TID 0000.0001) ADWRITE:  tapeFileCounter =   106
(PID.TID 0000.0001) ADWRITE:  tapeFileCounter =   107
(PID.TID 0000.0001) ADWRITE:  tapeFileCounter =   108
(PID.TID 0000.0001) ADWRITE:  tapeFileCounter =   109
(PID.TID 0000.0001) ADWRITE:  tapeFileCounter =   110
(PID.TID 0000.0001) ADWRITE:  tapeFileCounter =   111
(PID.TID 0000.0001) ADWRITE:  tapeFileCounter =   112
(PID.TID 0000.0001) ADWRITE:  tapeFileCounter =   113
(PID.TID 0000.0001) ADWRITE:  tapeFileCounter =   114
(PID.TID 0000.0001) ADWRITE: tid,vid, irec, length, prec(x2)=    41    27     2    15456  8 64 fname=tapelev2_27_the_main_loop_theta
(PID.TID 0000.0001) ADWRITE:  tapeFileCounter =   115
(PID.TID 0000.0001) ADWRITE:  tapeFileCounter =   116
(PID.TID 0000.0001) ADWRITE:  tapeFileCounter =   117
(PID.TID 0000.0001) ADWRITE:  tapeFileCounter =   118
(PID.TID 0000.0001) ADWRITE:  tapeFileCounter =   119
(PID.TID 0000.0001) ADWRITE:  tapeFileCounter =   120
(PID.TID 0000.0001) ADWRITE:  tapeFileCounter =   121
(PID.TID 0000.0001) ADWRITE:  tapeFileCounter =   122
(PID.TID 0000.0001) ADWRITE:  tapeFileCounter =   123
(PID.TID 0000.0001) ADWRITE:  tapeFileCounter =   124
(PID.TID 0000.0001) ADWRITE:  tapeFileCounter =   125
(PID.TID 0000.0001) ADWRITE:  tapeFileCounter =   126
(PID.TID 0000.0001) ADWRITE:  tapeFileCounter =   127
(PID.TID 0000.0001) ADWRITE:  tapeFileCounter =   128
(PID.TID 0000.0001) ADWRITE:  tapeFileCounter =   129
(PID.TID 0000.0001) ADWRITE:  tapeFileCounter =   130
(PID.TID 0000.0001) ADWRITE:  tapeFileCounter =   131
(PID.TID 0000.0001) ADWRITE:  tapeFileCounter =   132
(PID.TID 0000.0001) ADWRITE:  tapeFileCounter =   133
(PID.TID 0000.0001) ADWRITE:  tapeFileCounter =   134
(PID.TID 0000.0001) ADWRITE:  tapeFileCounter =   135
(PID.TID 0000.0001) ADWRITE:  tapeFileCounter =   136
(PID.TID 0000.0001) ADWRITE:  tapeFileCounter =   137
(PID.TID 0000.0001) ADWRITE: tid,vid, irec, length, prec(x2)=    41    28     2    15456  8 64 fname=tapelev2_28_the_main_loop_salt
(PID.TID 0000.0001) ADWRITE:  tapeFileCounter =   138
(PID.TID 0000.0001) ADWRITE:  tapeFileCounter =   139
(PID.TID 0000.0001) ADWRITE:  tapeFileCounter =   140
(PID.TID 0000.0001) ADWRITE:  tapeFileCounter =   141
(PID.TID 0000.0001) ADWRITE:  tapeFileCounter =   142
(PID.TID 0000.0001) ADWRITE:  tapeFileCounter =   143
(PID.TID 0000.0001) ADWRITE:  tapeFileCounter =   144
(PID.TID 0000.0001) ADWRITE:  tapeFileCounter =   145
(PID.TID 0000.0001) ADWRITE:  tapeFileCounter =   146
(PID.TID 0000.0001) ADWRITE:  tapeFileCounter =   147
(PID.TID 0000.0001) ADWRITE:  tapeFileCounter =   148
(PID.TID 0000.0001) ADWRITE:  tapeFileCounter =   149
(PID.TID 0000.0001) ADWRITE:  tapeFileCounter =   150
(PID.TID 0000.0001) ADWRITE:  tapeFileCounter =   151
(PID.TID 0000.0001) ADWRITE:  tapeFileCounter =   152
(PID.TID 0000.0001) ADWRITE:  tapeFileCounter =   153
(PID.TID 0000.0001) ADWRITE:  tapeFileCounter =   154
(PID.TID 0000.0001) ADWRITE:  tapeFileCounter =   155
(PID.TID 0000.0001) ADWRITE:  tapeFileCounter =   156
(PID.TID 0000.0001) ADWRITE:  tapeFileCounter =   157
(PID.TID 0000.0001) ADWRITE:  tapeFileCounter =   158
(PID.TID 0000.0001) ADWRITE:  tapeFileCounter =   159
(PID.TID 0000.0001) ADWRITE:  tapeFileCounter =   160
(PID.TID 0000.0001) ADWRITE: tid,vid, irec, length, prec(x2)=    41    29     2    15456  8 64 fname=tapelev2_29_the_main_loop_uvel
(PID.TID 0000.0001) ADWRITE:  tapeFileCounter =   161
(PID.TID 0000.0001) ADWRITE:  tapeFileCounter =   162
(PID.TID 0000.0001) ADWRITE:  tapeFileCounter =   163
(PID.TID 0000.0001) ADWRITE:  tapeFileCounter =   164
(PID.TID 0000.0001) ADWRITE:  tapeFileCounter =   165
(PID.TID 0000.0001) ADWRITE:  tapeFileCounter =   166
(PID.TID 0000.0001) ADWRITE:  tapeFileCounter =   167
(PID.TID 0000.0001) ADWRITE:  tapeFileCounter =   168
(PID.TID 0000.0001) ADWRITE:  tapeFileCounter =   169
(PID.TID 0000.0001) ADWRITE:  tapeFileCounter =   170
(PID.TID 0000.0001) ADWRITE:  tapeFileCounter =   171
(PID.TID 0000.0001) ADWRITE:  tapeFileCounter =   172
(PID.TID 0000.0001) ADWRITE:  tapeFileCounter =   173
(PID.TID 0000.0001) ADWRITE:  tapeFileCounter =   174
(PID.TID 0000.0001) ADWRITE:  tapeFileCounter =   175
(PID.TID 0000.0001) ADWRITE:  tapeFileCounter =   176
(PID.TID 0000.0001) ADWRITE:  tapeFileCounter =   177
(PID.TID 0000.0001) ADWRITE:  tapeFileCounter =   178
(PID.TID 0000.0001) ADWRITE:  tapeFileCounter =   179
(PID.TID 0000.0001) ADWRITE:  tapeFileCounter =   180
(PID.TID 0000.0001) ADWRITE:  tapeFileCounter =   181
(PID.TID 0000.0001) ADWRITE:  tapeFileCounter =   182
(PID.TID 0000.0001) ADWRITE:  tapeFileCounter =   183
(PID.TID 0000.0001) ADWRITE: tid,vid, irec, length, prec(x2)=    41    30     2    15456  8 64 fname=tapelev2_30_the_main_loop_vvel
(PID.TID 0000.0001) ADWRITE:  tapeFileCounter =   184
(PID.TID 0000.0001) ADWRITE:  tapeFileCounter =   185
(PID.TID 0000.0001) ADWRITE:  tapeFileCounter =   186
(PID.TID 0000.0001) ADWRITE:  tapeFileCounter =   187
(PID.TID 0000.0001) ADWRITE:  tapeFileCounter =   188
(PID.TID 0000.0001) ADWRITE:  tapeFileCounter =   189
(PID.TID 0000.0001) ADWRITE:  tapeFileCounter =   190
(PID.TID 0000.0001) ADWRITE:  tapeFileCounter =   191
(PID.TID 0000.0001) ADWRITE:  tapeFileCounter =   192
(PID.TID 0000.0001) ADWRITE:  tapeFileCounter =   193
(PID.TID 0000.0001) ADWRITE:  tapeFileCounter =   194
(PID.TID 0000.0001) ADWRITE:  tapeFileCounter =   195
(PID.TID 0000.0001) ADWRITE:  tapeFileCounter =   196
(PID.TID 0000.0001) ADWRITE:  tapeFileCounter =   197
(PID.TID 0000.0001) ADWRITE:  tapeFileCounter =   198
(PID.TID 0000.0001) ADWRITE:  tapeFileCounter =   199
(PID.TID 0000.0001) ADWRITE:  tapeFileCounter =   200
(PID.TID 0000.0001) ADWRITE:  tapeFileCounter =   201
(PID.TID 0000.0001) ADWRITE:  tapeFileCounter =   202
(PID.TID 0000.0001) ADWRITE:  tapeFileCounter =   203
(PID.TID 0000.0001) ADWRITE:  tapeFileCounter =   204
(PID.TID 0000.0001) ADWRITE:  tapeFileCounter =   205
(PID.TID 0000.0001) ADWRITE:  tapeFileCounter =   206
(PID.TID 0000.0001) ADWRITE: tid,vid, irec, length, prec(x2)=    41    31     2    15456  8 64 fname=tapelev2_31_the_main_loop_wvel
(PID.TID 0000.0001) ADWRITE:  tapeFileCounter =   207
(PID.TID 0000.0001) ADWRITE:  tapeFileCounter =   208
(PID.TID 0000.0001) ADWRITE:  tapeFileCounter =   209
(PID.TID 0000.0001) ADWRITE:  tapeFileCounter =   210
(PID.TID 0000.0001) ADWRITE:  tapeFileCounter =   211
(PID.TID 0000.0001) ADWRITE:  tapeFileCounter =   212
(PID.TID 0000.0001) ADWRITE:  tapeFileCounter =   213
(PID.TID 0000.0001) ADWRITE:  tapeFileCounter =   214
(PID.TID 0000.0001) ADWRITE:  tapeFileCounter =   215
(PID.TID 0000.0001) ADWRITE:  tapeFileCounter =   216
(PID.TID 0000.0001) ADWRITE:  tapeFileCounter =   217
(PID.TID 0000.0001) ADWRITE:  tapeFileCounter =   218
(PID.TID 0000.0001) ADWRITE:  tapeFileCounter =   219
(PID.TID 0000.0001) ADWRITE:  tapeFileCounter =   220
(PID.TID 0000.0001) ADWRITE:  tapeFileCounter =   221
(PID.TID 0000.0001) ADWRITE:  tapeFileCounter =   222
(PID.TID 0000.0001) ADWRITE:  tapeFileCounter =   223
(PID.TID 0000.0001) ADWRITE:  tapeFileCounter =   224
(PID.TID 0000.0001) ADWRITE:  tapeFileCounter =   225
(PID.TID 0000.0001) ADWRITE:  tapeFileCounter =   226
(PID.TID 0000.0001) ADWRITE:  tapeFileCounter =   227
(PID.TID 0000.0001) ADWRITE:  tapeFileCounter =   228
(PID.TID 0000.0001) ADWRITE:  tapeFileCounter =   229
(PID.TID 0000.0001) ADWRITE: tid,vid, irec, length, prec(x2)=    41    32     2    15456  8 64 fname=tapelev2_32_the_main_loop_totphihyd
(PID.TID 0000.0001) ADWRITE:  tapeFileCounter =   230
(PID.TID 0000.0001) ADWRITE:  tapeFileCounter =   231
(PID.TID 0000.0001) ADWRITE:  tapeFileCounter =   232
(PID.TID 0000.0001) ADWRITE:  tapeFileCounter =   233
(PID.TID 0000.0001) ADWRITE:  tapeFileCounter =   234
(PID.TID 0000.0001) ADWRITE:  tapeFileCounter =   235
(PID.TID 0000.0001) ADWRITE:  tapeFileCounter =   236
(PID.TID 0000.0001) ADWRITE:  tapeFileCounter =   237
(PID.TID 0000.0001) ADWRITE:  tapeFileCounter =   238
(PID.TID 0000.0001) ADWRITE:  tapeFileCounter =   239
(PID.TID 0000.0001) ADWRITE:  tapeFileCounter =   240
(PID.TID 0000.0001) ADWRITE:  tapeFileCounter =   241
(PID.TID 0000.0001) ADWRITE:  tapeFileCounter =   242
(PID.TID 0000.0001) ADWRITE:  tapeFileCounter =   243
(PID.TID 0000.0001) ADWRITE:  tapeFileCounter =   244
(PID.TID 0000.0001) ADWRITE:  tapeFileCounter =   245
(PID.TID 0000.0001) ADWRITE:  tapeFileCounter =   246
(PID.TID 0000.0001) ADWRITE:  tapeFileCounter =   247
(PID.TID 0000.0001) ADWRITE:  tapeFileCounter =   248
(PID.TID 0000.0001) ADWRITE:  tapeFileCounter =   249
(PID.TID 0000.0001) ADWRITE:  tapeFileCounter =   250
(PID.TID 0000.0001) ADWRITE:  tapeFileCounter =   251
(PID.TID 0000.0001) ADWRITE:  tapeFileCounter =   252
(PID.TID 0000.0001) ADWRITE: tid,vid, irec, length, prec(x2)=    41    35     2    15456  8 64 fname=tapelev2_35_the_main_loop_uveld
(PID.TID 0000.0001) ADWRITE:  tapeFileCounter =   253
(PID.TID 0000.0001) ADWRITE:  tapeFileCounter =   254
(PID.TID 0000.0001) ADWRITE:  tapeFileCounter =   255
(PID.TID 0000.0001) ADWRITE:  tapeFileCounter =   256
(PID.TID 0000.0001) ADWRITE:  tapeFileCounter =   257
(PID.TID 0000.0001) ADWRITE:  tapeFileCounter =   258
(PID.TID 0000.0001) ADWRITE:  tapeFileCounter =   259
(PID.TID 0000.0001) ADWRITE:  tapeFileCounter =   260
(PID.TID 0000.0001) ADWRITE:  tapeFileCounter =   261
(PID.TID 0000.0001) ADWRITE:  tapeFileCounter =   262
(PID.TID 0000.0001) ADWRITE:  tapeFileCounter =   263
(PID.TID 0000.0001) ADWRITE:  tapeFileCounter =   264
(PID.TID 0000.0001) ADWRITE:  tapeFileCounter =   265
(PID.TID 0000.0001) ADWRITE:  tapeFileCounter =   266
(PID.TID 0000.0001) ADWRITE:  tapeFileCounter =   267
(PID.TID 0000.0001) ADWRITE:  tapeFileCounter =   268
(PID.TID 0000.0001) ADWRITE:  tapeFileCounter =   269
(PID.TID 0000.0001) ADWRITE:  tapeFileCounter =   270
(PID.TID 0000.0001) ADWRITE:  tapeFileCounter =   271
(PID.TID 0000.0001) ADWRITE:  tapeFileCounter =   272
(PID.TID 0000.0001) ADWRITE:  tapeFileCounter =   273
(PID.TID 0000.0001) ADWRITE:  tapeFileCounter =   274
(PID.TID 0000.0001) ADWRITE:  tapeFileCounter =   275
(PID.TID 0000.0001) ADWRITE: tid,vid, irec, length, prec(x2)=    41    36     2    15456  8 64 fname=tapelev2_36_the_main_loop_vveld
(PID.TID 0000.0001) ADWRITE:  tapeFileCounter =   276
(PID.TID 0000.0001) ADWRITE:  tapeFileCounter =   277
(PID.TID 0000.0001) ADWRITE:  tapeFileCounter =   278
(PID.TID 0000.0001) ADWRITE:  tapeFileCounter =   279
(PID.TID 0000.0001) ADWRITE:  tapeFileCounter =   280
(PID.TID 0000.0001) ADWRITE:  tapeFileCounter =   281
(PID.TID 0000.0001) ADWRITE:  tapeFileCounter =   282
(PID.TID 0000.0001) ADWRITE:  tapeFileCounter =   283
(PID.TID 0000.0001) ADWRITE:  tapeFileCounter =   284
(PID.TID 0000.0001) ADWRITE:  tapeFileCounter =   285
(PID.TID 0000.0001) ADWRITE:  tapeFileCounter =   286
(PID.TID 0000.0001) ADWRITE:  tapeFileCounter =   287
(PID.TID 0000.0001) ADWRITE:  tapeFileCounter =   288
(PID.TID 0000.0001) ADWRITE:  tapeFileCounter =   289
(PID.TID 0000.0001) ADWRITE:  tapeFileCounter =   290
(PID.TID 0000.0001) ADWRITE:  tapeFileCounter =   291
(PID.TID 0000.0001) ADWRITE:  tapeFileCounter =   292
(PID.TID 0000.0001) ADWRITE:  tapeFileCounter =   293
(PID.TID 0000.0001) ADWRITE:  tapeFileCounter =   294
(PID.TID 0000.0001) ADWRITE:  tapeFileCounter =   295
(PID.TID 0000.0001) ADWRITE:  tapeFileCounter =   296
(PID.TID 0000.0001) ADWRITE:  tapeFileCounter =   297
(PID.TID 0000.0001) ADWRITE:  tapeFileCounter =   298
(PID.TID 0000.0001) ADWRITE: tid,vid, irec, length, prec(x2)=    41    37     2      672  8 64 fname=tapelev2_37_the_main_loop_etanm1
(PID.TID 0000.0001) ADWRITE:  tapeFileCounter =   299
(PID.TID 0000.0001) ADWRITE: tid,vid, irec, length, prec(x2)=    41    38     2    15456  8 64 fname=tapelev2_38_the_main_loop_unm1
(PID.TID 0000.0001) ADWRITE:  tapeFileCounter =   300
(PID.TID 0000.0001) ADWRITE:  tapeFileCounter =   301
(PID.TID 0000.0001) ADWRITE:  tapeFileCounter =   302
(PID.TID 0000.0001) ADWRITE:  tapeFileCounter =   303
(PID.TID 0000.0001) ADWRITE:  tapeFileCounter =   304
(PID.TID 0000.0001) ADWRITE:  tapeFileCounter =   305
(PID.TID 0000.0001) ADWRITE:  tapeFileCounter =   306
(PID.TID 0000.0001) ADWRITE:  tapeFileCounter =   307
(PID.TID 0000.0001) ADWRITE:  tapeFileCounter =   308
(PID.TID 0000.0001) ADWRITE:  tapeFileCounter =   309
(PID.TID 0000.0001) ADWRITE:  tapeFileCounter =   310
(PID.TID 0000.0001) ADWRITE:  tapeFileCounter =   311
(PID.TID 0000.0001) ADWRITE:  tapeFileCounter =   312
(PID.TID 0000.0001) ADWRITE:  tapeFileCounter =   313
(PID.TID 0000.0001) ADWRITE:  tapeFileCounter =   314
(PID.TID 0000.0001) ADWRITE:  tapeFileCounter =   315
(PID.TID 0000.0001) ADWRITE:  tapeFileCounter =   316
(PID.TID 0000.0001) ADWRITE:  tapeFileCounter =   317
(PID.TID 0000.0001) ADWRITE:  tapeFileCounter =   318
(PID.TID 0000.0001) ADWRITE:  tapeFileCounter =   319
(PID.TID 0000.0001) ADWRITE:  tapeFileCounter =   320
(PID.TID 0000.0001) ADWRITE:  tapeFileCounter =   321
(PID.TID 0000.0001) ADWRITE:  tapeFileCounter =   322
(PID.TID 0000.0001) ADWRITE: tid,vid, irec, length, prec(x2)=    41    39     2    15456  8 64 fname=tapelev2_39_the_main_loop_vnm1
(PID.TID 0000.0001) ADWRITE:  tapeFileCounter =   323
(PID.TID 0000.0001) ADWRITE:  tapeFileCounter =   324
(PID.TID 0000.0001) ADWRITE:  tapeFileCounter =   325
(PID.TID 0000.0001) ADWRITE:  tapeFileCounter =   326
(PID.TID 0000.0001) ADWRITE:  tapeFileCounter =   327
(PID.TID 0000.0001) ADWRITE:  tapeFileCounter =   328
(PID.TID 0000.0001) ADWRITE:  tapeFileCounter =   329
(PID.TID 0000.0001) ADWRITE:  tapeFileCounter =   330
(PID.TID 0000.0001) ADWRITE:  tapeFileCounter =   331
(PID.TID 0000.0001) ADWRITE:  tapeFileCounter =   332
(PID.TID 0000.0001) ADWRITE:  tapeFileCounter =   333
(PID.TID 0000.0001) ADWRITE:  tapeFileCounter =   334
(PID.TID 0000.0001) ADWRITE:  tapeFileCounter =   335
(PID.TID 0000.0001) ADWRITE:  tapeFileCounter =   336
(PID.TID 0000.0001) ADWRITE:  tapeFileCounter =   337
(PID.TID 0000.0001) ADWRITE:  tapeFileCounter =   338
(PID.TID 0000.0001) ADWRITE:  tapeFileCounter =   339
(PID.TID 0000.0001) ADWRITE:  tapeFileCounter =   340
(PID.TID 0000.0001) ADWRITE:  tapeFileCounter =   341
(PID.TID 0000.0001) ADWRITE:  tapeFileCounter =   342
(PID.TID 0000.0001) ADWRITE:  tapeFileCounter =   343
(PID.TID 0000.0001) ADWRITE:  tapeFileCounter =   344
(PID.TID 0000.0001) ADWRITE:  tapeFileCounter =   345
(PID.TID 0000.0001) ADWRITE: tid,vid, irec, length, prec(x2)=    41    40     2      672  8 64 fname=tapelev2_40_the_main_loop_areamask0
(PID.TID 0000.0001) ADWRITE:  tapeFileCounter =   346
(PID.TID 0000.0001) ADWRITE: tid,vid, irec, length, prec(x2)=    41    41     2      672  8 64 fname=tapelev2_41_the_main_loop_areamask1
(PID.TID 0000.0001) ADWRITE:  tapeFileCounter =   347
(PID.TID 0000.0001) ADWRITE: tid,vid, irec, length, prec(x2)=    41    42     2      672  8 64 fname=tapelev2_42_the_main_loop_hflux0
(PID.TID 0000.0001) ADWRITE:  tapeFileCounter =   348
(PID.TID 0000.0001) ADWRITE: tid,vid, irec, length, prec(x2)=    41    43     2      672  8 64 fname=tapelev2_43_the_main_loop_hflux1
(PID.TID 0000.0001) ADWRITE:  tapeFileCounter =   349
(PID.TID 0000.0001) ADWRITE: tid,vid, irec, length, prec(x2)=    41    44     2      672  8 64 fname=tapelev2_44_the_main_loop_sflux0
(PID.TID 0000.0001) ADWRITE:  tapeFileCounter =   350
(PID.TID 0000.0001) ADWRITE: tid,vid, irec, length, prec(x2)=    41    45     2      672  8 64 fname=tapelev2_45_the_main_loop_sflux1
(PID.TID 0000.0001) ADWRITE:  tapeFileCounter =   351
(PID.TID 0000.0001) ADWRITE: tid,vid, irec, length, prec(x2)=    41    46     2      672  8 64 fname=tapelev2_46_the_main_loop_ustress0
(PID.TID 0000.0001) ADWRITE:  tapeFileCounter =   352
(PID.TID 0000.0001) ADWRITE: tid,vid, irec, length, prec(x2)=    41    47     2      672  8 64 fname=tapelev2_47_the_main_loop_ustress1
(PID.TID 0000.0001) ADWRITE:  tapeFileCounter =   353
(PID.TID 0000.0001) ADWRITE: tid,vid, irec, length, prec(x2)=    41    48     2      672  8 64 fname=tapelev2_48_the_main_loop_vstress0
(PID.TID 0000.0001) ADWRITE:  tapeFileCounter =   354
(PID.TID 0000.0001) ADWRITE: tid,vid, irec, length, prec(x2)=    41    49     2      672  8 64 fname=tapelev2_49_the_main_loop_vstress1
(PID.TID 0000.0001) ADWRITE:  tapeFileCounter =   355
(PID.TID 0000.0001) ADWRITE: tid,vid, irec, length, prec(x2)=    41    50     2      672  8 64 fname=tapelev2_50_the_main_loop_wspeed0
(PID.TID 0000.0001) ADWRITE:  tapeFileCounter =   356
(PID.TID 0000.0001) ADWRITE: tid,vid, irec, length, prec(x2)=    41    51     2      672  8 64 fname=tapelev2_51_the_main_loop_wspeed1
(PID.TID 0000.0001) ADWRITE:  tapeFileCounter =   357
(PID.TID 0000.0001) ADWRITE: tid,vid, irec, length, prec(x2)=    41    54     2      672  8 64 fname=tapelev2_54_the_main_loop_runoff0
(PID.TID 0000.0001) ADWRITE:  tapeFileCounter =   358
(PID.TID 0000.0001) ADWRITE: tid,vid, irec, length, prec(x2)=    41    55     2      672  8 64 fname=tapelev2_55_the_main_loop_runoff1
(PID.TID 0000.0001) ADWRITE:  tapeFileCounter =   359
(PID.TID 0000.0001) ADWRITE: tid,vid, irec, length, prec(x2)=    41    56     2      672  8 64 fname=tapelev2_56_the_main_loop_apressure0
(PID.TID 0000.0001) ADWRITE:  tapeFileCounter =   360
(PID.TID 0000.0001) ADWRITE: tid,vid, irec, length, prec(x2)=    41    57     2      672  8 64 fname=tapelev2_57_the_main_loop_apressure1
(PID.TID 0000.0001) ADWRITE:  tapeFileCounter =   361
(PID.TID 0000.0001) ADWRITE: tid,vid, irec, length, prec(x2)=    41    58     2      672  8 64 fname=tapelev2_58_the_main_loop_siceload
(PID.TID 0000.0001) ADWRITE:  tapeFileCounter =   362
(PID.TID 0000.0001) ADWRITE: tid,vid, irec, length, prec(x2)=    41    59     2      672  8 64 fname=tapelev2_59_the_main_loop_climsss0
(PID.TID 0000.0001) ADWRITE:  tapeFileCounter =   363
(PID.TID 0000.0001) ADWRITE: tid,vid, irec, length, prec(x2)=    41    60     2      672  8 64 fname=tapelev2_60_the_main_loop_climsss1
(PID.TID 0000.0001) ADWRITE:  tapeFileCounter =   364
(PID.TID 0000.0001) ADWRITE: tid,vid, irec, length, prec(x2)=    41    61     2      672  8 64 fname=tapelev2_61_the_main_loop_climsst0
(PID.TID 0000.0001) ADWRITE:  tapeFileCounter =   365
(PID.TID 0000.0001) ADWRITE: tid,vid, irec, length, prec(x2)=    41    62     2      672  8 64 fname=tapelev2_62_the_main_loop_climsst1
(PID.TID 0000.0001) ADWRITE:  tapeFileCounter =   366
(PID.TID 0000.0001) ADWRITE: tid,vid, irec, length, prec(x2)=    41    63     2      672  8 64 fname=tapelev2_63_the_main_loop_saltflx0
(PID.TID 0000.0001) ADWRITE:  tapeFileCounter =   367
(PID.TID 0000.0001) ADWRITE: tid,vid, irec, length, prec(x2)=    41    64     2      672  8 64 fname=tapelev2_64_the_main_loop_saltflx1
(PID.TID 0000.0001) ADWRITE:  tapeFileCounter =   368
(PID.TID 0000.0001) ADWRITE: tid,vid, irec, length, prec(x2)=    41    65     2      672  8 64 fname=tapelev2_65_the_main_loop_aqh0
(PID.TID 0000.0001) ADWRITE:  tapeFileCounter =   369
(PID.TID 0000.0001) ADWRITE: tid,vid, irec, length, prec(x2)=    41    66     2      672  8 64 fname=tapelev2_66_the_main_loop_aqh1
(PID.TID 0000.0001) ADWRITE:  tapeFileCounter =   370
(PID.TID 0000.0001) ADWRITE: tid,vid, irec, length, prec(x2)=    41    67     2      672  8 64 fname=tapelev2_67_the_main_loop_atemp0
(PID.TID 0000.0001) ADWRITE:  tapeFileCounter =   371
(PID.TID 0000.0001) ADWRITE: tid,vid, irec, length, prec(x2)=    41    68     2      672  8 64 fname=tapelev2_68_the_main_loop_atemp1
(PID.TID 0000.0001) ADWRITE:  tapeFileCounter =   372
(PID.TID 0000.0001) ADWRITE: tid,vid, irec, length, prec(x2)=    41    69     2      672  8 64 fname=tapelev2_69_the_main_loop_precip0
(PID.TID 0000.0001) ADWRITE:  tapeFileCounter =   373
(PID.TID 0000.0001) ADWRITE: tid,vid, irec, length, prec(x2)=    41    70     2      672  8 64 fname=tapelev2_70_the_main_loop_precip1
(PID.TID 0000.0001) ADWRITE:  tapeFileCounter =   374
(PID.TID 0000.0001) ADWRITE: tid,vid, irec, length, prec(x2)=    41    73     2      672  8 64 fname=tapelev2_73_the_main_loop_snowprecip0
(PID.TID 0000.0001) ADWRITE:  tapeFileCounter =   375
(PID.TID 0000.0001) ADWRITE: tid,vid, irec, length, prec(x2)=    41    74     2      672  8 64 fname=tapelev2_74_the_main_loop_snowprecip1
(PID.TID 0000.0001) ADWRITE:  tapeFileCounter =   376
(PID.TID 0000.0001) ADWRITE: tid,vid, irec, length, prec(x2)=    41    75     2      672  8 64 fname=tapelev2_75_the_main_loop_swdown0
(PID.TID 0000.0001) ADWRITE:  tapeFileCounter =   377
(PID.TID 0000.0001) ADWRITE: tid,vid, irec, length, prec(x2)=    41    76     2      672  8 64 fname=tapelev2_76_the_main_loop_swdown1
(PID.TID 0000.0001) ADWRITE:  tapeFileCounter =   378
(PID.TID 0000.0001) ADWRITE: tid,vid, irec, length, prec(x2)=    41    77     2      672  8 64 fname=tapelev2_77_the_main_loop_lwdown0
(PID.TID 0000.0001) ADWRITE:  tapeFileCounter =   379
(PID.TID 0000.0001) ADWRITE: tid,vid, irec, length, prec(x2)=    41    78     2      672  8 64 fname=tapelev2_78_the_main_loop_lwdown1
(PID.TID 0000.0001) ADWRITE:  tapeFileCounter =   380
(PID.TID 0000.0001) ADWRITE: tid,vid, irec, length, prec(x2)=    41    79     2      672  8 64 fname=tapelev2_79_the_main_loop_uwind0
(PID.TID 0000.0001) ADWRITE:  tapeFileCounter =   381
(PID.TID 0000.0001) ADWRITE: tid,vid, irec, length, prec(x2)=    41    80     2      672  8 64 fname=tapelev2_80_the_main_loop_uwind1
(PID.TID 0000.0001) ADWRITE:  tapeFileCounter =   382
(PID.TID 0000.0001) ADWRITE: tid,vid, irec, length, prec(x2)=    41    81     2      672  8 64 fname=tapelev2_81_the_main_loop_vwind0
(PID.TID 0000.0001) ADWRITE:  tapeFileCounter =   383
(PID.TID 0000.0001) ADWRITE: tid,vid, irec, length, prec(x2)=    41    82     2      672  8 64 fname=tapelev2_82_the_main_loop_vwind1
(PID.TID 0000.0001) ADWRITE:  tapeFileCounter =   384
(PID.TID 0000.0001) ADWRITE: tid,vid, irec, length, prec(x2)=    41    83     2     6048  8 64 fname=tapelev2_83_the_main_loop_xx_gentim2d
(PID.TID 0000.0001) ADWRITE:  tapeFileCounter =   385
(PID.TID 0000.0001) ADWRITE:  tapeFileCounter =   386
(PID.TID 0000.0001) ADWRITE:  tapeFileCounter =   387
(PID.TID 0000.0001) ADWRITE:  tapeFileCounter =   388
(PID.TID 0000.0001) ADWRITE:  tapeFileCounter =   389
(PID.TID 0000.0001) ADWRITE:  tapeFileCounter =   390
(PID.TID 0000.0001) ADWRITE:  tapeFileCounter =   391
(PID.TID 0000.0001) ADWRITE:  tapeFileCounter =   392
(PID.TID 0000.0001) ADWRITE:  tapeFileCounter =   393
(PID.TID 0000.0001) ADWRITE: tid,vid, irec, length, prec(x2)=    41    84     2     6048  8 64 fname=tapelev2_84_the_main_loop_xx_gentim2d0
(PID.TID 0000.0001) ADWRITE:  tapeFileCounter =   394
(PID.TID 0000.0001) ADWRITE:  tapeFileCounter =   395
(PID.TID 0000.0001) ADWRITE:  tapeFileCounter =   396
(PID.TID 0000.0001) ADWRITE:  tapeFileCounter =   397
(PID.TID 0000.0001) ADWRITE:  tapeFileCounter =   398
(PID.TID 0000.0001) ADWRITE:  tapeFileCounter =   399
(PID.TID 0000.0001) ADWRITE:  tapeFileCounter =   400
(PID.TID 0000.0001) ADWRITE:  tapeFileCounter =   401
(PID.TID 0000.0001) ADWRITE:  tapeFileCounter =   402
(PID.TID 0000.0001) ADWRITE: tid,vid, irec, length, prec(x2)=    41    85     2     6048  8 64 fname=tapelev2_85_the_main_loop_xx_gentim2d1
(PID.TID 0000.0001) ADWRITE:  tapeFileCounter =   403
(PID.TID 0000.0001) ADWRITE:  tapeFileCounter =   404
(PID.TID 0000.0001) ADWRITE:  tapeFileCounter =   405
(PID.TID 0000.0001) ADWRITE:  tapeFileCounter =   406
(PID.TID 0000.0001) ADWRITE:  tapeFileCounter =   407
(PID.TID 0000.0001) ADWRITE:  tapeFileCounter =   408
(PID.TID 0000.0001) ADWRITE:  tapeFileCounter =   409
(PID.TID 0000.0001) ADWRITE:  tapeFileCounter =   410
(PID.TID 0000.0001) ADWRITE:  tapeFileCounter =   411
(PID.TID 0000.0001) ADWRITE: tid,vid, irec, length, prec(x2)=    41    87     2      672  8 64 fname=tapelev2_87_the_main_loop_phihydlow
(PID.TID 0000.0001) ADWRITE:  tapeFileCounter =   412
(PID.TID 0000.0001) ADWRITE: tid,vid, irec, length, prec(x2)=    41    88     2      672  8 64 fname=tapelev2_88_the_main_loop_area
(PID.TID 0000.0001) ADWRITE:  tapeFileCounter =   413
(PID.TID 0000.0001) ADWRITE: tid,vid, irec, length, prec(x2)=    41    89     2      672  8 64 fname=tapelev2_89_the_main_loop_heff
(PID.TID 0000.0001) ADWRITE:  tapeFileCounter =   414
(PID.TID 0000.0001) ADWRITE: tid,vid, irec, length, prec(x2)=    41    90     2      672  8 64 fname=tapelev2_90_the_main_loop_hsnow
(PID.TID 0000.0001) ADWRITE:  tapeFileCounter =   415
(PID.TID 0000.0001) ADWRITE: tid,vid, irec, length, prec(x2)=    41    92     2      672  8 64 fname=tapelev2_92_the_main_loop_uice
(PID.TID 0000.0001) ADWRITE:  tapeFileCounter =   416
(PID.TID 0000.0001) ADWRITE: tid,vid, irec, length, prec(x2)=    41    93     2      672  8 64 fname=tapelev2_93_the_main_loop_vice
(PID.TID 0000.0001) ADWRITE:  tapeFileCounter =   417
(PID.TID 0000.0001) ADWRITE: tid,vid, irec, length, prec(x2)=    41    96     2     4704  8 64 fname=tapelev2_96_the_main_loop_tices
(PID.TID 0000.0001) ADWRITE:  tapeFileCounter =   418
(PID.TID 0000.0001) ADWRITE:  tapeFileCounter =   419
(PID.TID 0000.0001) ADWRITE:  tapeFileCounter =   420
(PID.TID 0000.0001) ADWRITE:  tapeFileCounter =   421
(PID.TID 0000.0001) ADWRITE:  tapeFileCounter =   422
(PID.TID 0000.0001) ADWRITE:  tapeFileCounter =   423
(PID.TID 0000.0001) ADWRITE:  tapeFileCounter =   424
(PID.TID 0000.0001) ADWRITE: tid,vid, irec, length, prec(x2)=    41    97     2      672  8 64 fname=tapelev2_97_the_main_loop_dwatn
(PID.TID 0000.0001) ADWRITE:  tapeFileCounter =   425
(PID.TID 0000.0001) ADWRITE: tid,vid, irec, length, prec(x2)=    41    98     2      672  8 64 fname=tapelev2_98_the_main_loop_stressdivergencex
(PID.TID 0000.0001) ADWRITE:  tapeFileCounter =   426
(PID.TID 0000.0001) ADWRITE: tid,vid, irec, length, prec(x2)=    41    99     2      672  8 64 fname=tapelev2_99_the_main_loop_stressdivergencey
(PID.TID 0000.0001) ADWRITE:  tapeFileCounter =   427
(PID.TID 0000.0001) ADWRITE: tid,vid, irec, length, prec(x2)=    41   100     2      672  8 64 fname=tapelev2_100_the_main_loop_seaice_sigma1
(PID.TID 0000.0001) ADWRITE:  tapeFileCounter =   428
(PID.TID 0000.0001) ADWRITE: tid,vid, irec, length, prec(x2)=    41   101     2      672  8 64 fname=tapelev2_101_the_main_loop_seaice_sigma2
(PID.TID 0000.0001) ADWRITE:  tapeFileCounter =   429
(PID.TID 0000.0001) ADWRITE: tid,vid, irec, length, prec(x2)=    41   102     2      672  8 64 fname=tapelev2_102_the_main_loop_seaice_sigma12
(PID.TID 0000.0001) ADWRITE:  tapeFileCounter =   430
(PID.TID 0000.0001) ADWRITE: tid,vid, irec, length, prec(x2)=    41   103     2      672  8 64 fname=tapelev2_103_the_main_loop_hsalt
(PID.TID 0000.0001) ADWRITE:  tapeFileCounter =   431
(PID.TID 0000.0001) whio : write lev 2 rec   2
(PID.TID 0000.0001) ADREAD:  tid,vid, irec, length, prec(x2)=    41     1     2      672  8 64 fname=tapelev2_1_the_main_loop_etan
(PID.TID 0000.0001) ADREAD:  tid,vid, irec, length, prec(x2)=    41     2     2      672  8 64 fname=tapelev2_2_the_main_loop_taux0
(PID.TID 0000.0001) ADREAD:  tid,vid, irec, length, prec(x2)=    41     3     2      672  8 64 fname=tapelev2_3_the_main_loop_taux1
(PID.TID 0000.0001) ADREAD:  tid,vid, irec, length, prec(x2)=    41     4     2      672  8 64 fname=tapelev2_4_the_main_loop_tauy0
(PID.TID 0000.0001) ADREAD:  tid,vid, irec, length, prec(x2)=    41     5     2      672  8 64 fname=tapelev2_5_the_main_loop_tauy1
(PID.TID 0000.0001) ADREAD:  tid,vid, irec, length, prec(x2)=    41     6     2      672  8 64 fname=tapelev2_6_the_main_loop_qnet0
(PID.TID 0000.0001) ADREAD:  tid,vid, irec, length, prec(x2)=    41     7     2      672  8 64 fname=tapelev2_7_the_main_loop_qnet1
(PID.TID 0000.0001) ADREAD:  tid,vid, irec, length, prec(x2)=    41     8     2      672  8 64 fname=tapelev2_8_the_main_loop_empmr0
(PID.TID 0000.0001) ADREAD:  tid,vid, irec, length, prec(x2)=    41     9     2      672  8 64 fname=tapelev2_9_the_main_loop_empmr1
(PID.TID 0000.0001) ADREAD:  tid,vid, irec, length, prec(x2)=    41    10     2      672  8 64 fname=tapelev2_10_the_main_loop_sst0
(PID.TID 0000.0001) ADREAD:  tid,vid, irec, length, prec(x2)=    41    11     2      672  8 64 fname=tapelev2_11_the_main_loop_sst1
(PID.TID 0000.0001) ADREAD:  tid,vid, irec, length, prec(x2)=    41    12     2      672  8 64 fname=tapelev2_12_the_main_loop_sss0
(PID.TID 0000.0001) ADREAD:  tid,vid, irec, length, prec(x2)=    41    13     2      672  8 64 fname=tapelev2_13_the_main_loop_sss1
(PID.TID 0000.0001) ADREAD:  tid,vid, irec, length, prec(x2)=    41    14     2      672  8 64 fname=tapelev2_14_the_main_loop_saltflux0
(PID.TID 0000.0001) ADREAD:  tid,vid, irec, length, prec(x2)=    41    15     2      672  8 64 fname=tapelev2_15_the_main_loop_saltflux1
(PID.TID 0000.0001) ADREAD:  tid,vid, irec, length, prec(x2)=    41    16     2      672  8 64 fname=tapelev2_16_the_main_loop_qsw0
(PID.TID 0000.0001) ADREAD:  tid,vid, irec, length, prec(x2)=    41    17     2      672  8 64 fname=tapelev2_17_the_main_loop_qsw1
(PID.TID 0000.0001) ADREAD:  tid,vid, irec, length, prec(x2)=    41    18     2      672  8 64 fname=tapelev2_18_the_main_loop_pload0
(PID.TID 0000.0001) ADREAD:  tid,vid, irec, length, prec(x2)=    41    19     2      672  8 64 fname=tapelev2_19_the_main_loop_pload1
(PID.TID 0000.0001) ADREAD:  tid,vid, irec, length, prec(x2)=    41    20     2      672  8 64 fname=tapelev2_20_the_main_loop_etah
(PID.TID 0000.0001) ADREAD:  tid,vid, irec, length, prec(x2)=    41    21     2      672  8 64 fname=tapelev2_21_the_main_loop_detahdt
(PID.TID 0000.0001) ADREAD:  tid,vid, irec, length, prec(x2)=    41    22     2      672  8 64 fname=tapelev2_22_the_main_loop_pmepr
(PID.TID 0000.0001) ADREAD:  tid,vid, irec, length, prec(x2)=    41    23     2    15456  8 64 fname=tapelev2_23_the_main_loop_gtnm1
(PID.TID 0000.0001) ADREAD:  tid,vid, irec, length, prec(x2)=    41    24     2    15456  8 64 fname=tapelev2_24_the_main_loop_gsnm1
(PID.TID 0000.0001) ADREAD:  tid,vid, irec, length, prec(x2)=    41    25     2    15456  8 64 fname=tapelev2_25_the_main_loop_gunm1
(PID.TID 0000.0001) ADREAD:  tid,vid, irec, length, prec(x2)=    41    26     2    15456  8 64 fname=tapelev2_26_the_main_loop_gvnm1
(PID.TID 0000.0001) ADREAD:  tid,vid, irec, length, prec(x2)=    41    27     2    15456  8 64 fname=tapelev2_27_the_main_loop_theta
(PID.TID 0000.0001) ADREAD:  tid,vid, irec, length, prec(x2)=    41    28     2    15456  8 64 fname=tapelev2_28_the_main_loop_salt
(PID.TID 0000.0001) ADREAD:  tid,vid, irec, length, prec(x2)=    41    29     2    15456  8 64 fname=tapelev2_29_the_main_loop_uvel
(PID.TID 0000.0001) ADREAD:  tid,vid, irec, length, prec(x2)=    41    30     2    15456  8 64 fname=tapelev2_30_the_main_loop_vvel
(PID.TID 0000.0001) ADREAD:  tid,vid, irec, length, prec(x2)=    41    31     2    15456  8 64 fname=tapelev2_31_the_main_loop_wvel
(PID.TID 0000.0001) ADREAD:  tid,vid, irec, length, prec(x2)=    41    32     2    15456  8 64 fname=tapelev2_32_the_main_loop_totphihyd
(PID.TID 0000.0001) ADREAD:  tid,vid, irec, length, prec(x2)=    41    35     2    15456  8 64 fname=tapelev2_35_the_main_loop_uveld
(PID.TID 0000.0001) ADREAD:  tid,vid, irec, length, prec(x2)=    41    36     2    15456  8 64 fname=tapelev2_36_the_main_loop_vveld
(PID.TID 0000.0001) ADREAD:  tid,vid, irec, length, prec(x2)=    41    37     2      672  8 64 fname=tapelev2_37_the_main_loop_etanm1
(PID.TID 0000.0001) ADREAD:  tid,vid, irec, length, prec(x2)=    41    38     2    15456  8 64 fname=tapelev2_38_the_main_loop_unm1
(PID.TID 0000.0001) ADREAD:  tid,vid, irec, length, prec(x2)=    41    39     2    15456  8 64 fname=tapelev2_39_the_main_loop_vnm1
(PID.TID 0000.0001) ADREAD:  tid,vid, irec, length, prec(x2)=    41    40     2      672  8 64 fname=tapelev2_40_the_main_loop_areamask0
(PID.TID 0000.0001) ADREAD:  tid,vid, irec, length, prec(x2)=    41    41     2      672  8 64 fname=tapelev2_41_the_main_loop_areamask1
(PID.TID 0000.0001) ADREAD:  tid,vid, irec, length, prec(x2)=    41    42     2      672  8 64 fname=tapelev2_42_the_main_loop_hflux0
(PID.TID 0000.0001) ADREAD:  tid,vid, irec, length, prec(x2)=    41    43     2      672  8 64 fname=tapelev2_43_the_main_loop_hflux1
(PID.TID 0000.0001) ADREAD:  tid,vid, irec, length, prec(x2)=    41    44     2      672  8 64 fname=tapelev2_44_the_main_loop_sflux0
(PID.TID 0000.0001) ADREAD:  tid,vid, irec, length, prec(x2)=    41    45     2      672  8 64 fname=tapelev2_45_the_main_loop_sflux1
(PID.TID 0000.0001) ADREAD:  tid,vid, irec, length, prec(x2)=    41    46     2      672  8 64 fname=tapelev2_46_the_main_loop_ustress0
(PID.TID 0000.0001) ADREAD:  tid,vid, irec, length, prec(x2)=    41    47     2      672  8 64 fname=tapelev2_47_the_main_loop_ustress1
(PID.TID 0000.0001) ADREAD:  tid,vid, irec, length, prec(x2)=    41    48     2      672  8 64 fname=tapelev2_48_the_main_loop_vstress0
(PID.TID 0000.0001) ADREAD:  tid,vid, irec, length, prec(x2)=    41    49     2      672  8 64 fname=tapelev2_49_the_main_loop_vstress1
(PID.TID 0000.0001) ADREAD:  tid,vid, irec, length, prec(x2)=    41    50     2      672  8 64 fname=tapelev2_50_the_main_loop_wspeed0
(PID.TID 0000.0001) ADREAD:  tid,vid, irec, length, prec(x2)=    41    51     2      672  8 64 fname=tapelev2_51_the_main_loop_wspeed1
(PID.TID 0000.0001) ADREAD:  tid,vid, irec, length, prec(x2)=    41    54     2      672  8 64 fname=tapelev2_54_the_main_loop_runoff0
(PID.TID 0000.0001) ADREAD:  tid,vid, irec, length, prec(x2)=    41    55     2      672  8 64 fname=tapelev2_55_the_main_loop_runoff1
(PID.TID 0000.0001) ADREAD:  tid,vid, irec, length, prec(x2)=    41    56     2      672  8 64 fname=tapelev2_56_the_main_loop_apressure0
(PID.TID 0000.0001) ADREAD:  tid,vid, irec, length, prec(x2)=    41    57     2      672  8 64 fname=tapelev2_57_the_main_loop_apressure1
(PID.TID 0000.0001) ADREAD:  tid,vid, irec, length, prec(x2)=    41    58     2      672  8 64 fname=tapelev2_58_the_main_loop_siceload
(PID.TID 0000.0001) ADREAD:  tid,vid, irec, length, prec(x2)=    41    59     2      672  8 64 fname=tapelev2_59_the_main_loop_climsss0
(PID.TID 0000.0001) ADREAD:  tid,vid, irec, length, prec(x2)=    41    60     2      672  8 64 fname=tapelev2_60_the_main_loop_climsss1
(PID.TID 0000.0001) ADREAD:  tid,vid, irec, length, prec(x2)=    41    61     2      672  8 64 fname=tapelev2_61_the_main_loop_climsst0
(PID.TID 0000.0001) ADREAD:  tid,vid, irec, length, prec(x2)=    41    62     2      672  8 64 fname=tapelev2_62_the_main_loop_climsst1
(PID.TID 0000.0001) ADREAD:  tid,vid, irec, length, prec(x2)=    41    63     2      672  8 64 fname=tapelev2_63_the_main_loop_saltflx0
(PID.TID 0000.0001) ADREAD:  tid,vid, irec, length, prec(x2)=    41    64     2      672  8 64 fname=tapelev2_64_the_main_loop_saltflx1
(PID.TID 0000.0001) ADREAD:  tid,vid, irec, length, prec(x2)=    41    65     2      672  8 64 fname=tapelev2_65_the_main_loop_aqh0
(PID.TID 0000.0001) ADREAD:  tid,vid, irec, length, prec(x2)=    41    66     2      672  8 64 fname=tapelev2_66_the_main_loop_aqh1
(PID.TID 0000.0001) ADREAD:  tid,vid, irec, length, prec(x2)=    41    67     2      672  8 64 fname=tapelev2_67_the_main_loop_atemp0
(PID.TID 0000.0001) ADREAD:  tid,vid, irec, length, prec(x2)=    41    68     2      672  8 64 fname=tapelev2_68_the_main_loop_atemp1
(PID.TID 0000.0001) ADREAD:  tid,vid, irec, length, prec(x2)=    41    69     2      672  8 64 fname=tapelev2_69_the_main_loop_precip0
(PID.TID 0000.0001) ADREAD:  tid,vid, irec, length, prec(x2)=    41    70     2      672  8 64 fname=tapelev2_70_the_main_loop_precip1
(PID.TID 0000.0001) ADREAD:  tid,vid, irec, length, prec(x2)=    41    73     2      672  8 64 fname=tapelev2_73_the_main_loop_snowprecip0
(PID.TID 0000.0001) ADREAD:  tid,vid, irec, length, prec(x2)=    41    74     2      672  8 64 fname=tapelev2_74_the_main_loop_snowprecip1
(PID.TID 0000.0001) ADREAD:  tid,vid, irec, length, prec(x2)=    41    75     2      672  8 64 fname=tapelev2_75_the_main_loop_swdown0
(PID.TID 0000.0001) ADREAD:  tid,vid, irec, length, prec(x2)=    41    76     2      672  8 64 fname=tapelev2_76_the_main_loop_swdown1
(PID.TID 0000.0001) ADREAD:  tid,vid, irec, length, prec(x2)=    41    77     2      672  8 64 fname=tapelev2_77_the_main_loop_lwdown0
(PID.TID 0000.0001) ADREAD:  tid,vid, irec, length, prec(x2)=    41    78     2      672  8 64 fname=tapelev2_78_the_main_loop_lwdown1
(PID.TID 0000.0001) ADREAD:  tid,vid, irec, length, prec(x2)=    41    79     2      672  8 64 fname=tapelev2_79_the_main_loop_uwind0
(PID.TID 0000.0001) ADREAD:  tid,vid, irec, length, prec(x2)=    41    80     2      672  8 64 fname=tapelev2_80_the_main_loop_uwind1
(PID.TID 0000.0001) ADREAD:  tid,vid, irec, length, prec(x2)=    41    81     2      672  8 64 fname=tapelev2_81_the_main_loop_vwind0
(PID.TID 0000.0001) ADREAD:  tid,vid, irec, length, prec(x2)=    41    82     2      672  8 64 fname=tapelev2_82_the_main_loop_vwind1
(PID.TID 0000.0001) ADREAD:  tid,vid, irec, length, prec(x2)=    41    83     2     6048  8 64 fname=tapelev2_83_the_main_loop_xx_gentim2d
(PID.TID 0000.0001) ADREAD:  tid,vid, irec, length, prec(x2)=    41    84     2     6048  8 64 fname=tapelev2_84_the_main_loop_xx_gentim2d0
(PID.TID 0000.0001) ADREAD:  tid,vid, irec, length, prec(x2)=    41    85     2     6048  8 64 fname=tapelev2_85_the_main_loop_xx_gentim2d1
(PID.TID 0000.0001) ADREAD:  tid,vid, irec, length, prec(x2)=    41    87     2      672  8 64 fname=tapelev2_87_the_main_loop_phihydlow
(PID.TID 0000.0001) ADREAD:  tid,vid, irec, length, prec(x2)=    41    88     2      672  8 64 fname=tapelev2_88_the_main_loop_area
(PID.TID 0000.0001) ADREAD:  tid,vid, irec, length, prec(x2)=    41    89     2      672  8 64 fname=tapelev2_89_the_main_loop_heff
(PID.TID 0000.0001) ADREAD:  tid,vid, irec, length, prec(x2)=    41    90     2      672  8 64 fname=tapelev2_90_the_main_loop_hsnow
(PID.TID 0000.0001) ADREAD:  tid,vid, irec, length, prec(x2)=    41    92     2      672  8 64 fname=tapelev2_92_the_main_loop_uice
(PID.TID 0000.0001) ADREAD:  tid,vid, irec, length, prec(x2)=    41    93     2      672  8 64 fname=tapelev2_93_the_main_loop_vice
(PID.TID 0000.0001) ADREAD:  tid,vid, irec, length, prec(x2)=    41    96     2     4704  8 64 fname=tapelev2_96_the_main_loop_tices
(PID.TID 0000.0001) ADREAD:  tid,vid, irec, length, prec(x2)=    41    97     2      672  8 64 fname=tapelev2_97_the_main_loop_dwatn
(PID.TID 0000.0001) ADREAD:  tid,vid, irec, length, prec(x2)=    41    98     2      672  8 64 fname=tapelev2_98_the_main_loop_stressdivergencex
(PID.TID 0000.0001) ADREAD:  tid,vid, irec, length, prec(x2)=    41    99     2      672  8 64 fname=tapelev2_99_the_main_loop_stressdivergencey
(PID.TID 0000.0001) ADREAD:  tid,vid, irec, length, prec(x2)=    41   100     2      672  8 64 fname=tapelev2_100_the_main_loop_seaice_sigma1
(PID.TID 0000.0001) ADREAD:  tid,vid, irec, length, prec(x2)=    41   101     2      672  8 64 fname=tapelev2_101_the_main_loop_seaice_sigma2
(PID.TID 0000.0001) ADREAD:  tid,vid, irec, length, prec(x2)=    41   102     2      672  8 64 fname=tapelev2_102_the_main_loop_seaice_sigma12
(PID.TID 0000.0001) ADREAD:  tid,vid, irec, length, prec(x2)=    41   103     2      672  8 64 fname=tapelev2_103_the_main_loop_hsalt
(PID.TID 0000.0001) ADREAD:  tid,vid, irec, length, prec(x2)=    41     1     1      672  8 64 fname=tapelev2_1_the_main_loop_etan
(PID.TID 0000.0001) ADREAD:  tid,vid, irec, length, prec(x2)=    41     2     1      672  8 64 fname=tapelev2_2_the_main_loop_taux0
(PID.TID 0000.0001) ADREAD:  tid,vid, irec, length, prec(x2)=    41     3     1      672  8 64 fname=tapelev2_3_the_main_loop_taux1
(PID.TID 0000.0001) ADREAD:  tid,vid, irec, length, prec(x2)=    41     4     1      672  8 64 fname=tapelev2_4_the_main_loop_tauy0
(PID.TID 0000.0001) ADREAD:  tid,vid, irec, length, prec(x2)=    41     5     1      672  8 64 fname=tapelev2_5_the_main_loop_tauy1
(PID.TID 0000.0001) ADREAD:  tid,vid, irec, length, prec(x2)=    41     6     1      672  8 64 fname=tapelev2_6_the_main_loop_qnet0
(PID.TID 0000.0001) ADREAD:  tid,vid, irec, length, prec(x2)=    41     7     1      672  8 64 fname=tapelev2_7_the_main_loop_qnet1
(PID.TID 0000.0001) ADREAD:  tid,vid, irec, length, prec(x2)=    41     8     1      672  8 64 fname=tapelev2_8_the_main_loop_empmr0
(PID.TID 0000.0001) ADREAD:  tid,vid, irec, length, prec(x2)=    41     9     1      672  8 64 fname=tapelev2_9_the_main_loop_empmr1
(PID.TID 0000.0001) ADREAD:  tid,vid, irec, length, prec(x2)=    41    10     1      672  8 64 fname=tapelev2_10_the_main_loop_sst0
(PID.TID 0000.0001) ADREAD:  tid,vid, irec, length, prec(x2)=    41    11     1      672  8 64 fname=tapelev2_11_the_main_loop_sst1
(PID.TID 0000.0001) ADREAD:  tid,vid, irec, length, prec(x2)=    41    12     1      672  8 64 fname=tapelev2_12_the_main_loop_sss0
(PID.TID 0000.0001) ADREAD:  tid,vid, irec, length, prec(x2)=    41    13     1      672  8 64 fname=tapelev2_13_the_main_loop_sss1
(PID.TID 0000.0001) ADREAD:  tid,vid, irec, length, prec(x2)=    41    14     1      672  8 64 fname=tapelev2_14_the_main_loop_saltflux0
(PID.TID 0000.0001) ADREAD:  tid,vid, irec, length, prec(x2)=    41    15     1      672  8 64 fname=tapelev2_15_the_main_loop_saltflux1
(PID.TID 0000.0001) ADREAD:  tid,vid, irec, length, prec(x2)=    41    16     1      672  8 64 fname=tapelev2_16_the_main_loop_qsw0
(PID.TID 0000.0001) ADREAD:  tid,vid, irec, length, prec(x2)=    41    17     1      672  8 64 fname=tapelev2_17_the_main_loop_qsw1
(PID.TID 0000.0001) ADREAD:  tid,vid, irec, length, prec(x2)=    41    18     1      672  8 64 fname=tapelev2_18_the_main_loop_pload0
(PID.TID 0000.0001) ADREAD:  tid,vid, irec, length, prec(x2)=    41    19     1      672  8 64 fname=tapelev2_19_the_main_loop_pload1
(PID.TID 0000.0001) ADREAD:  tid,vid, irec, length, prec(x2)=    41    20     1      672  8 64 fname=tapelev2_20_the_main_loop_etah
(PID.TID 0000.0001) ADREAD:  tid,vid, irec, length, prec(x2)=    41    21     1      672  8 64 fname=tapelev2_21_the_main_loop_detahdt
(PID.TID 0000.0001) ADREAD:  tid,vid, irec, length, prec(x2)=    41    22     1      672  8 64 fname=tapelev2_22_the_main_loop_pmepr
(PID.TID 0000.0001) ADREAD:  tid,vid, irec, length, prec(x2)=    41    23     1    15456  8 64 fname=tapelev2_23_the_main_loop_gtnm1
(PID.TID 0000.0001) ADREAD:  tid,vid, irec, length, prec(x2)=    41    24     1    15456  8 64 fname=tapelev2_24_the_main_loop_gsnm1
(PID.TID 0000.0001) ADREAD:  tid,vid, irec, length, prec(x2)=    41    25     1    15456  8 64 fname=tapelev2_25_the_main_loop_gunm1
(PID.TID 0000.0001) ADREAD:  tid,vid, irec, length, prec(x2)=    41    26     1    15456  8 64 fname=tapelev2_26_the_main_loop_gvnm1
(PID.TID 0000.0001) ADREAD:  tid,vid, irec, length, prec(x2)=    41    27     1    15456  8 64 fname=tapelev2_27_the_main_loop_theta
(PID.TID 0000.0001) ADREAD:  tid,vid, irec, length, prec(x2)=    41    28     1    15456  8 64 fname=tapelev2_28_the_main_loop_salt
(PID.TID 0000.0001) ADREAD:  tid,vid, irec, length, prec(x2)=    41    29     1    15456  8 64 fname=tapelev2_29_the_main_loop_uvel
(PID.TID 0000.0001) ADREAD:  tid,vid, irec, length, prec(x2)=    41    30     1    15456  8 64 fname=tapelev2_30_the_main_loop_vvel
(PID.TID 0000.0001) ADREAD:  tid,vid, irec, length, prec(x2)=    41    31     1    15456  8 64 fname=tapelev2_31_the_main_loop_wvel
(PID.TID 0000.0001) ADREAD:  tid,vid, irec, length, prec(x2)=    41    32     1    15456  8 64 fname=tapelev2_32_the_main_loop_totphihyd
(PID.TID 0000.0001) ADREAD:  tid,vid, irec, length, prec(x2)=    41    35     1    15456  8 64 fname=tapelev2_35_the_main_loop_uveld
(PID.TID 0000.0001) ADREAD:  tid,vid, irec, length, prec(x2)=    41    36     1    15456  8 64 fname=tapelev2_36_the_main_loop_vveld
(PID.TID 0000.0001) ADREAD:  tid,vid, irec, length, prec(x2)=    41    37     1      672  8 64 fname=tapelev2_37_the_main_loop_etanm1
(PID.TID 0000.0001) ADREAD:  tid,vid, irec, length, prec(x2)=    41    38     1    15456  8 64 fname=tapelev2_38_the_main_loop_unm1
(PID.TID 0000.0001) ADREAD:  tid,vid, irec, length, prec(x2)=    41    39     1    15456  8 64 fname=tapelev2_39_the_main_loop_vnm1
(PID.TID 0000.0001) ADREAD:  tid,vid, irec, length, prec(x2)=    41    40     1      672  8 64 fname=tapelev2_40_the_main_loop_areamask0
(PID.TID 0000.0001) ADREAD:  tid,vid, irec, length, prec(x2)=    41    41     1      672  8 64 fname=tapelev2_41_the_main_loop_areamask1
(PID.TID 0000.0001) ADREAD:  tid,vid, irec, length, prec(x2)=    41    42     1      672  8 64 fname=tapelev2_42_the_main_loop_hflux0
(PID.TID 0000.0001) ADREAD:  tid,vid, irec, length, prec(x2)=    41    43     1      672  8 64 fname=tapelev2_43_the_main_loop_hflux1
(PID.TID 0000.0001) ADREAD:  tid,vid, irec, length, prec(x2)=    41    44     1      672  8 64 fname=tapelev2_44_the_main_loop_sflux0
(PID.TID 0000.0001) ADREAD:  tid,vid, irec, length, prec(x2)=    41    45     1      672  8 64 fname=tapelev2_45_the_main_loop_sflux1
(PID.TID 0000.0001) ADREAD:  tid,vid, irec, length, prec(x2)=    41    46     1      672  8 64 fname=tapelev2_46_the_main_loop_ustress0
(PID.TID 0000.0001) ADREAD:  tid,vid, irec, length, prec(x2)=    41    47     1      672  8 64 fname=tapelev2_47_the_main_loop_ustress1
(PID.TID 0000.0001) ADREAD:  tid,vid, irec, length, prec(x2)=    41    48     1      672  8 64 fname=tapelev2_48_the_main_loop_vstress0
(PID.TID 0000.0001) ADREAD:  tid,vid, irec, length, prec(x2)=    41    49     1      672  8 64 fname=tapelev2_49_the_main_loop_vstress1
(PID.TID 0000.0001) ADREAD:  tid,vid, irec, length, prec(x2)=    41    50     1      672  8 64 fname=tapelev2_50_the_main_loop_wspeed0
(PID.TID 0000.0001) ADREAD:  tid,vid, irec, length, prec(x2)=    41    51     1      672  8 64 fname=tapelev2_51_the_main_loop_wspeed1
(PID.TID 0000.0001) ADREAD:  tid,vid, irec, length, prec(x2)=    41    54     1      672  8 64 fname=tapelev2_54_the_main_loop_runoff0
(PID.TID 0000.0001) ADREAD:  tid,vid, irec, length, prec(x2)=    41    55     1      672  8 64 fname=tapelev2_55_the_main_loop_runoff1
(PID.TID 0000.0001) ADREAD:  tid,vid, irec, length, prec(x2)=    41    56     1      672  8 64 fname=tapelev2_56_the_main_loop_apressure0
(PID.TID 0000.0001) ADREAD:  tid,vid, irec, length, prec(x2)=    41    57     1      672  8 64 fname=tapelev2_57_the_main_loop_apressure1
(PID.TID 0000.0001) ADREAD:  tid,vid, irec, length, prec(x2)=    41    58     1      672  8 64 fname=tapelev2_58_the_main_loop_siceload
(PID.TID 0000.0001) ADREAD:  tid,vid, irec, length, prec(x2)=    41    59     1      672  8 64 fname=tapelev2_59_the_main_loop_climsss0
(PID.TID 0000.0001) ADREAD:  tid,vid, irec, length, prec(x2)=    41    60     1      672  8 64 fname=tapelev2_60_the_main_loop_climsss1
(PID.TID 0000.0001) ADREAD:  tid,vid, irec, length, prec(x2)=    41    61     1      672  8 64 fname=tapelev2_61_the_main_loop_climsst0
(PID.TID 0000.0001) ADREAD:  tid,vid, irec, length, prec(x2)=    41    62     1      672  8 64 fname=tapelev2_62_the_main_loop_climsst1
(PID.TID 0000.0001) ADREAD:  tid,vid, irec, length, prec(x2)=    41    63     1      672  8 64 fname=tapelev2_63_the_main_loop_saltflx0
(PID.TID 0000.0001) ADREAD:  tid,vid, irec, length, prec(x2)=    41    64     1      672  8 64 fname=tapelev2_64_the_main_loop_saltflx1
(PID.TID 0000.0001) ADREAD:  tid,vid, irec, length, prec(x2)=    41    65     1      672  8 64 fname=tapelev2_65_the_main_loop_aqh0
(PID.TID 0000.0001) ADREAD:  tid,vid, irec, length, prec(x2)=    41    66     1      672  8 64 fname=tapelev2_66_the_main_loop_aqh1
(PID.TID 0000.0001) ADREAD:  tid,vid, irec, length, prec(x2)=    41    67     1      672  8 64 fname=tapelev2_67_the_main_loop_atemp0
(PID.TID 0000.0001) ADREAD:  tid,vid, irec, length, prec(x2)=    41    68     1      672  8 64 fname=tapelev2_68_the_main_loop_atemp1
(PID.TID 0000.0001) ADREAD:  tid,vid, irec, length, prec(x2)=    41    69     1      672  8 64 fname=tapelev2_69_the_main_loop_precip0
(PID.TID 0000.0001) ADREAD:  tid,vid, irec, length, prec(x2)=    41    70     1      672  8 64 fname=tapelev2_70_the_main_loop_precip1
(PID.TID 0000.0001) ADREAD:  tid,vid, irec, length, prec(x2)=    41    73     1      672  8 64 fname=tapelev2_73_the_main_loop_snowprecip0
(PID.TID 0000.0001) ADREAD:  tid,vid, irec, length, prec(x2)=    41    74     1      672  8 64 fname=tapelev2_74_the_main_loop_snowprecip1
(PID.TID 0000.0001) ADREAD:  tid,vid, irec, length, prec(x2)=    41    75     1      672  8 64 fname=tapelev2_75_the_main_loop_swdown0
(PID.TID 0000.0001) ADREAD:  tid,vid, irec, length, prec(x2)=    41    76     1      672  8 64 fname=tapelev2_76_the_main_loop_swdown1
(PID.TID 0000.0001) ADREAD:  tid,vid, irec, length, prec(x2)=    41    77     1      672  8 64 fname=tapelev2_77_the_main_loop_lwdown0
(PID.TID 0000.0001) ADREAD:  tid,vid, irec, length, prec(x2)=    41    78     1      672  8 64 fname=tapelev2_78_the_main_loop_lwdown1
(PID.TID 0000.0001) ADREAD:  tid,vid, irec, length, prec(x2)=    41    79     1      672  8 64 fname=tapelev2_79_the_main_loop_uwind0
(PID.TID 0000.0001) ADREAD:  tid,vid, irec, length, prec(x2)=    41    80     1      672  8 64 fname=tapelev2_80_the_main_loop_uwind1
(PID.TID 0000.0001) ADREAD:  tid,vid, irec, length, prec(x2)=    41    81     1      672  8 64 fname=tapelev2_81_the_main_loop_vwind0
(PID.TID 0000.0001) ADREAD:  tid,vid, irec, length, prec(x2)=    41    82     1      672  8 64 fname=tapelev2_82_the_main_loop_vwind1
(PID.TID 0000.0001) ADREAD:  tid,vid, irec, length, prec(x2)=    41    83     1     6048  8 64 fname=tapelev2_83_the_main_loop_xx_gentim2d
(PID.TID 0000.0001) ADREAD:  tid,vid, irec, length, prec(x2)=    41    84     1     6048  8 64 fname=tapelev2_84_the_main_loop_xx_gentim2d0
(PID.TID 0000.0001) ADREAD:  tid,vid, irec, length, prec(x2)=    41    85     1     6048  8 64 fname=tapelev2_85_the_main_loop_xx_gentim2d1
(PID.TID 0000.0001) ADREAD:  tid,vid, irec, length, prec(x2)=    41    87     1      672  8 64 fname=tapelev2_87_the_main_loop_phihydlow
(PID.TID 0000.0001) ADREAD:  tid,vid, irec, length, prec(x2)=    41    88     1      672  8 64 fname=tapelev2_88_the_main_loop_area
(PID.TID 0000.0001) ADREAD:  tid,vid, irec, length, prec(x2)=    41    89     1      672  8 64 fname=tapelev2_89_the_main_loop_heff
(PID.TID 0000.0001) ADREAD:  tid,vid, irec, length, prec(x2)=    41    90     1      672  8 64 fname=tapelev2_90_the_main_loop_hsnow
(PID.TID 0000.0001) ADREAD:  tid,vid, irec, length, prec(x2)=    41    92     1      672  8 64 fname=tapelev2_92_the_main_loop_uice
(PID.TID 0000.0001) ADREAD:  tid,vid, irec, length, prec(x2)=    41    93     1      672  8 64 fname=tapelev2_93_the_main_loop_vice
(PID.TID 0000.0001) ADREAD:  tid,vid, irec, length, prec(x2)=    41    96     1     4704  8 64 fname=tapelev2_96_the_main_loop_tices
(PID.TID 0000.0001) ADREAD:  tid,vid, irec, length, prec(x2)=    41    97     1      672  8 64 fname=tapelev2_97_the_main_loop_dwatn
(PID.TID 0000.0001) ADREAD:  tid,vid, irec, length, prec(x2)=    41    98     1      672  8 64 fname=tapelev2_98_the_main_loop_stressdivergencex
(PID.TID 0000.0001) ADREAD:  tid,vid, irec, length, prec(x2)=    41    99     1      672  8 64 fname=tapelev2_99_the_main_loop_stressdivergencey
(PID.TID 0000.0001) ADREAD:  tid,vid, irec, length, prec(x2)=    41   100     1      672  8 64 fname=tapelev2_100_the_main_loop_seaice_sigma1
(PID.TID 0000.0001) ADREAD:  tid,vid, irec, length, prec(x2)=    41   101     1      672  8 64 fname=tapelev2_101_the_main_loop_seaice_sigma2
(PID.TID 0000.0001) ADREAD:  tid,vid, irec, length, prec(x2)=    41   102     1      672  8 64 fname=tapelev2_102_the_main_loop_seaice_sigma12
(PID.TID 0000.0001) ADREAD:  tid,vid, irec, length, prec(x2)=    41   103     1      672  8 64 fname=tapelev2_103_the_main_loop_hsalt
(PID.TID 0000.0001)  MDS_READ_FIELD: opening global file: xx_atemp.effective.0000000001.data
(PID.TID 0000.0001) EXF_SET_FLD: processing field "climsss",  file: SSS_monthly.labsea1979
(PID.TID 0000.0001) EXF_SET_FLD:   myIter, count0, count1:         8      1      2
(PID.TID 0000.0001) EXF_SET_FLD:   first, changed, fac:   F   F    0.48907103825136611
(PID.TID 0000.0001) EXF_SET_FLD: processing field "uwind",  file: u10m.labsea1979
(PID.TID 0000.0001) EXF_SET_FLD:   myIter, count0, count1:         8      1      2
(PID.TID 0000.0001) EXF_SET_FLD:   first, changed, fac:   F   F    0.48907103825136611
(PID.TID 0000.0001) EXF_SET_FLD: processing field "vwind",  file: v10m.labsea1979
(PID.TID 0000.0001) EXF_SET_FLD:   myIter, count0, count1:         8      1      2
(PID.TID 0000.0001) EXF_SET_FLD:   first, changed, fac:   F   F    0.48907103825136611
(PID.TID 0000.0001) EXF_SET_FLD: processing field "atemp",  file: tair.labsea1979
(PID.TID 0000.0001) EXF_SET_FLD:   myIter, count0, count1:         8      1      2
(PID.TID 0000.0001) EXF_SET_FLD:   first, changed, fac:   F   F    0.48907103825136611
(PID.TID 0000.0001) EXF_SET_FLD: processing field "aqh",  file: qa.labsea1979
(PID.TID 0000.0001) EXF_SET_FLD:   myIter, count0, count1:         8      1      2
(PID.TID 0000.0001) EXF_SET_FLD:   first, changed, fac:   F   F    0.48907103825136611
(PID.TID 0000.0001) EXF_SET_FLD: processing field "precip",  file: prate.labsea1979
(PID.TID 0000.0001) EXF_SET_FLD:   myIter, count0, count1:         8      1      2
(PID.TID 0000.0001) EXF_SET_FLD:   first, changed, fac:   F   F    0.48907103825136611
(PID.TID 0000.0001) EXF_SET_FLD: processing field "swdown",  file: fsh.labsea1979
(PID.TID 0000.0001) EXF_SET_FLD:   myIter, count0, count1:         8      1      2
(PID.TID 0000.0001) EXF_SET_FLD:   first, changed, fac:   F   F    0.48907103825136611
(PID.TID 0000.0001) EXF_SET_FLD: processing field "lwdown",  file: flo.labsea1979
(PID.TID 0000.0001) EXF_SET_FLD:   myIter, count0, count1:         8      1      2
(PID.TID 0000.0001) EXF_SET_FLD:   first, changed, fac:   F   F    0.48907103825136611
DEBUG_STATS_RL:    cg2d_b (SOLVE_FOR_PRESSURE)  min= -7.29975929937793E+03
DEBUG_STATS_RL:    cg2d_b (SOLVE_FOR_PRESSURE)  max=  2.19478299507054E+03
DEBUG_STATS_RL:    cg2d_b (SOLVE_FOR_PRESSURE) mean= -3.96767063648440E-13
DEBUG_STATS_RL:    cg2d_b (SOLVE_FOR_PRESSURE) S.D.=  8.94146290227710E+02
 cg2d: Sum(rhs),rhsMax =  -6.92501611609941E-15  1.17489186776824E+00
DEBUG_STATS_RL:    cg2d_x (SOLVE_FOR_PRESSURE)  min= -1.08771127617308E+00
DEBUG_STATS_RL:    cg2d_x (SOLVE_FOR_PRESSURE)  max=  3.12128519797376E+00
DEBUG_STATS_RL:    cg2d_x (SOLVE_FOR_PRESSURE) mean= -4.19588396852395E-02
DEBUG_STATS_RL:    cg2d_x (SOLVE_FOR_PRESSURE) S.D.=  6.20262122262901E-01
(PID.TID 0000.0001) Did not write pickup because writePickupAtEnd = FALSE
(PID.TID 0000.0001) Did not write pickup because writePickupAtEnd = FALSE
(PID.TID 0000.0001) S/R ADAUTODIFF_INADMODE_SET: useKPP    =    T
(PID.TID 0000.0001) S/R ADAUTODIFF_INADMODE_SET: useGMRedi =    T
(PID.TID 0000.0001) S/R ADAUTODIFF_INADMODE_SET: useSEAICE =    T
(PID.TID 0000.0001) S/R ADAUTODIFF_INADMODE_SET: useGGL90    =    F
(PID.TID 0000.0001) S/R ADAUTODIFF_INADMODE_SET: useSALT_PLUME    =    F
(PID.TID 0000.0001) S/R ADAUTODIFF_INADMODE_SET: viscFacAdj = 1.00000000000000E+00
(PID.TID 0000.0001) // =======================================================
(PID.TID 0000.0001) // Begin AD_MONITOR dynamic field statistics
(PID.TID 0000.0001) // =======================================================
(PID.TID 0000.0001) %MON ad_time_tsnumber             =                     9
(PID.TID 0000.0001) %MON ad_time_secondsf             =   3.2400000000000E+04
(PID.TID 0000.0001) %MON ad_dynstat_adeta_max         =   0.0000000000000E+00
(PID.TID 0000.0001) %MON ad_dynstat_adeta_min         =   0.0000000000000E+00
(PID.TID 0000.0001) %MON ad_dynstat_adeta_mean        =   0.0000000000000E+00
(PID.TID 0000.0001) %MON ad_dynstat_adeta_sd          =   0.0000000000000E+00
(PID.TID 0000.0001) %MON ad_dynstat_adeta_del2        =   0.0000000000000E+00
(PID.TID 0000.0001) %MON ad_dynstat_aduvel_max        =   0.0000000000000E+00
(PID.TID 0000.0001) %MON ad_dynstat_aduvel_min        =   0.0000000000000E+00
(PID.TID 0000.0001) %MON ad_dynstat_aduvel_mean       =   0.0000000000000E+00
(PID.TID 0000.0001) %MON ad_dynstat_aduvel_sd         =   0.0000000000000E+00
(PID.TID 0000.0001) %MON ad_dynstat_aduvel_del2       =   0.0000000000000E+00
(PID.TID 0000.0001) %MON ad_dynstat_advvel_max        =   0.0000000000000E+00
(PID.TID 0000.0001) %MON ad_dynstat_advvel_min        =   0.0000000000000E+00
(PID.TID 0000.0001) %MON ad_dynstat_advvel_mean       =   0.0000000000000E+00
(PID.TID 0000.0001) %MON ad_dynstat_advvel_sd         =   0.0000000000000E+00
(PID.TID 0000.0001) %MON ad_dynstat_advvel_del2       =   0.0000000000000E+00
(PID.TID 0000.0001) %MON ad_dynstat_adwvel_max        =   0.0000000000000E+00
(PID.TID 0000.0001) %MON ad_dynstat_adwvel_min        =   0.0000000000000E+00
(PID.TID 0000.0001) %MON ad_dynstat_adwvel_mean       =   0.0000000000000E+00
(PID.TID 0000.0001) %MON ad_dynstat_adwvel_sd         =   0.0000000000000E+00
(PID.TID 0000.0001) %MON ad_dynstat_adwvel_del2       =   0.0000000000000E+00
(PID.TID 0000.0001) %MON ad_dynstat_adtheta_max       =   0.0000000000000E+00
(PID.TID 0000.0001) %MON ad_dynstat_adtheta_min       =  -1.4831956427884E+01
(PID.TID 0000.0001) %MON ad_dynstat_adtheta_mean      =  -7.9207547889324E-02
(PID.TID 0000.0001) %MON ad_dynstat_adtheta_sd        =   9.9109060834395E-01
(PID.TID 0000.0001) %MON ad_dynstat_adtheta_del2      =   5.4202014232597E-03
(PID.TID 0000.0001) %MON ad_dynstat_adsalt_max        =   0.0000000000000E+00
(PID.TID 0000.0001) %MON ad_dynstat_adsalt_min        =   0.0000000000000E+00
(PID.TID 0000.0001) %MON ad_dynstat_adsalt_mean       =   0.0000000000000E+00
(PID.TID 0000.0001) %MON ad_dynstat_adsalt_sd         =   0.0000000000000E+00
(PID.TID 0000.0001) %MON ad_dynstat_adsalt_del2       =   0.0000000000000E+00
(PID.TID 0000.0001) %MON ad_dynstat_adsst_max         =  -5.3191867672406E+00
(PID.TID 0000.0001) %MON ad_dynstat_adsst_min         =  -1.4831956427884E+01
(PID.TID 0000.0001) %MON ad_dynstat_adsst_mean        =  -1.1791813002433E+01
(PID.TID 0000.0001) %MON ad_dynstat_adsst_sd          =   2.8493121714474E+00
(PID.TID 0000.0001) %MON ad_dynstat_adsst_del2        =   6.7210497648420E-02
(PID.TID 0000.0001) %MON ad_dynstat_adsss_max         =   0.0000000000000E+00
(PID.TID 0000.0001) %MON ad_dynstat_adsss_min         =   0.0000000000000E+00
(PID.TID 0000.0001) %MON ad_dynstat_adsss_mean        =   0.0000000000000E+00
(PID.TID 0000.0001) %MON ad_dynstat_adsss_sd          =   0.0000000000000E+00
(PID.TID 0000.0001) %MON ad_dynstat_adsss_del2        =   0.0000000000000E+00
(PID.TID 0000.0001) // =======================================================
(PID.TID 0000.0001) // End AD_MONITOR dynamic field statistics
(PID.TID 0000.0001) // =======================================================
(PID.TID 0000.0001) // =======================================================
(PID.TID 0000.0001) // Begin AD_MONITOR SEAICE statistics
(PID.TID 0000.0001) // =======================================================
(PID.TID 0000.0001) %MON ad_seaice_tsnumber           =                     9
(PID.TID 0000.0001) %MON ad_seaice_time_sec           =   3.2400000000000E+04
(PID.TID 0000.0001) %MON ad_seaice_aduice_max         =   0.0000000000000E+00
(PID.TID 0000.0001) %MON ad_seaice_aduice_min         =   0.0000000000000E+00
(PID.TID 0000.0001) %MON ad_seaice_aduice_mean        =   0.0000000000000E+00
(PID.TID 0000.0001) %MON ad_seaice_aduice_sd          =   0.0000000000000E+00
(PID.TID 0000.0001) %MON ad_seaice_aduice_del2        =   0.0000000000000E+00
(PID.TID 0000.0001) %MON ad_seaice_advice_max         =   0.0000000000000E+00
(PID.TID 0000.0001) %MON ad_seaice_advice_min         =   0.0000000000000E+00
(PID.TID 0000.0001) %MON ad_seaice_advice_mean        =   0.0000000000000E+00
(PID.TID 0000.0001) %MON ad_seaice_advice_sd          =   0.0000000000000E+00
(PID.TID 0000.0001) %MON ad_seaice_advice_del2        =   0.0000000000000E+00
(PID.TID 0000.0001) %MON ad_seaice_adarea_max         =   0.0000000000000E+00
(PID.TID 0000.0001) %MON ad_seaice_adarea_min         =   0.0000000000000E+00
(PID.TID 0000.0001) %MON ad_seaice_adarea_mean        =   0.0000000000000E+00
(PID.TID 0000.0001) %MON ad_seaice_adarea_sd          =   0.0000000000000E+00
(PID.TID 0000.0001) %MON ad_seaice_adarea_del2        =   0.0000000000000E+00
(PID.TID 0000.0001) %MON ad_seaice_adheff_max         =   0.0000000000000E+00
(PID.TID 0000.0001) %MON ad_seaice_adheff_min         =   0.0000000000000E+00
(PID.TID 0000.0001) %MON ad_seaice_adheff_mean        =   0.0000000000000E+00
(PID.TID 0000.0001) %MON ad_seaice_adheff_sd          =   0.0000000000000E+00
(PID.TID 0000.0001) %MON ad_seaice_adheff_del2        =   0.0000000000000E+00
(PID.TID 0000.0001) %MON ad_seaice_adhsnow_max        =   0.0000000000000E+00
(PID.TID 0000.0001) %MON ad_seaice_adhsnow_min        =   0.0000000000000E+00
(PID.TID 0000.0001) %MON ad_seaice_adhsnow_mean       =   0.0000000000000E+00
(PID.TID 0000.0001) %MON ad_seaice_adhsnow_sd         =   0.0000000000000E+00
(PID.TID 0000.0001) %MON ad_seaice_adhsnow_del2       =   0.0000000000000E+00
(PID.TID 0000.0001) %MON ad_seaice_adhsalt_max        =   0.0000000000000E+00
(PID.TID 0000.0001) %MON ad_seaice_adhsalt_min        =   0.0000000000000E+00
(PID.TID 0000.0001) %MON ad_seaice_adhsalt_mean       =   0.0000000000000E+00
(PID.TID 0000.0001) %MON ad_seaice_adhsalt_sd         =   0.0000000000000E+00
(PID.TID 0000.0001) %MON ad_seaice_adhsalt_del2       =   0.0000000000000E+00
(PID.TID 0000.0001) // =======================================================
(PID.TID 0000.0001) // End AD_MONITOR SEAICE statistics
(PID.TID 0000.0001) // =======================================================
(PID.TID 0000.0001)  MDS_WRITE_FIELD: it,rec,kS,kL,kH=       9     1   1   1   1 file=ADJetan.0000000009
 Calling cg2d from S/R CG2D_MAD
 cg2d: Sum(rhs),rhsMax =   2.55438031837585E-16  2.54736718426401E-03
(PID.TID 0000.0001)       CG2D_MAD cg2d_init_res =   2.54036574095524E+00
(PID.TID 0000.0001)      CG2D_MAD: cg2d_iters(min,last) =      -1      45
(PID.TID 0000.0001)      CG2D_MAD: cg2d_last_res =   8.77363466896069E-14
(PID.TID 0000.0001)  MDS_WRITE_FIELD: it,rec,kS,kL,kH=       8     1   1   1   1 file=ADJtaux.0000000008
(PID.TID 0000.0001)  MDS_WRITE_FIELD: it,rec,kS,kL,kH=       8     1   1   1   1 file=ADJtauy.0000000008
(PID.TID 0000.0001)  MDS_WRITE_FIELD: it,rec,kS,kL,kH=       8     1   1   1   1 file=ADJqnet.0000000008
(PID.TID 0000.0001)  MDS_WRITE_FIELD: it,rec,kS,kL,kH=       8     1   1   1   1 file=ADJempr.0000000008
(PID.TID 0000.0001)  MDS_WRITE_FIELD: it,rec,kS,kL,kH=       8     1   1   1   1 file=ADJqsw.0000000008
(PID.TID 0000.0001)  MDS_WRITE_FIELD: it,rec,kS,kL,kH=       8     1  23   1  23 file=ADJtheta.0000000008
(PID.TID 0000.0001)  MDS_WRITE_FIELD: it,rec,kS,kL,kH=       8     1  23   1  23 file=ADJsalt.0000000008
(PID.TID 0000.0001)  MDS_WRITE_FIELD: it,rec,kS,kL,kH=       8     1  23   1  23 file=ADJwvel.0000000008
(PID.TID 0000.0001)  MDS_WRITE_FIELD: it,rec,kS,kL,kH=       8     1  23   1  23 file=ADJuvel.0000000008
(PID.TID 0000.0001)  MDS_WRITE_FIELD: it,rec,kS,kL,kH=       8     1  23   1  23 file=ADJvvel.0000000008
(PID.TID 0000.0001)  MDS_WRITE_FIELD: it,rec,kS,kL,kH=       8     1   1   1   1 file=ADJarea.0000000008
(PID.TID 0000.0001)  MDS_WRITE_FIELD: it,rec,kS,kL,kH=       8     1   1   1   1 file=ADJheff.0000000008
(PID.TID 0000.0001)  MDS_WRITE_FIELD: it,rec,kS,kL,kH=       8     1   1   1   1 file=ADJhsnow.0000000008
(PID.TID 0000.0001)  MDS_WRITE_FIELD: it,rec,kS,kL,kH=       8     1   1   1   1 file=ADJuice.0000000008
(PID.TID 0000.0001)  MDS_WRITE_FIELD: it,rec,kS,kL,kH=       8     1   1   1   1 file=ADJvice.0000000008
(PID.TID 0000.0001)  MDS_WRITE_FIELD: it,rec,kS,kL,kH=       8     1   1   1   1 file=ADJustress.0000000008
(PID.TID 0000.0001)  MDS_WRITE_FIELD: it,rec,kS,kL,kH=       8     1   1   1   1 file=ADJvstress.0000000008
(PID.TID 0000.0001)  MDS_WRITE_FIELD: it,rec,kS,kL,kH=       8     1   1   1   1 file=ADJhflux.0000000008
(PID.TID 0000.0001)  MDS_WRITE_FIELD: it,rec,kS,kL,kH=       8     1   1   1   1 file=ADJsflux.0000000008
(PID.TID 0000.0001)  MDS_WRITE_FIELD: it,rec,kS,kL,kH=       8     1   1   1   1 file=ADJatemp.0000000008
(PID.TID 0000.0001)  MDS_WRITE_FIELD: it,rec,kS,kL,kH=       8     1   1   1   1 file=ADJaqh.0000000008
(PID.TID 0000.0001)  MDS_WRITE_FIELD: it,rec,kS,kL,kH=       8     1   1   1   1 file=ADJprecip.0000000008
(PID.TID 0000.0001)  MDS_WRITE_FIELD: it,rec,kS,kL,kH=       8     1   1   1   1 file=ADJrunoff.0000000008
(PID.TID 0000.0001)  MDS_WRITE_FIELD: it,rec,kS,kL,kH=       8     1   1   1   1 file=ADJuwind.0000000008
(PID.TID 0000.0001)  MDS_WRITE_FIELD: it,rec,kS,kL,kH=       8     1   1   1   1 file=ADJvwind.0000000008
(PID.TID 0000.0001)  MDS_WRITE_FIELD: it,rec,kS,kL,kH=       8     1   1   1   1 file=ADJswdown.0000000008
(PID.TID 0000.0001)  MDS_WRITE_FIELD: it,rec,kS,kL,kH=       8     1   1   1   1 file=ADJlwdown.0000000008
(PID.TID 0000.0001)  MDS_WRITE_FIELD: it,rec,kS,kL,kH=       8     1   1   1   1 file=ADJclimsst.0000000008
(PID.TID 0000.0001)  MDS_WRITE_FIELD: it,rec,kS,kL,kH=       8     1   1   1   1 file=ADJclimsss.0000000008
(PID.TID 0000.0001)  MDS_READ_FIELD: opening global file: adxx_atemp.effective.0000000001.data
(PID.TID 0000.0001)  MDS_WRITE_FIELD: it,rec,kS,kL,kH=       1   -10  23   1   1 file=adxx_atemp.effective.0000000001
(PID.TID 0000.0001) S/R ADAUTODIFF_INADMODE_UNSET: useKPP    =    T
(PID.TID 0000.0001) S/R ADAUTODIFF_INADMODE_UNSET: useGMRedi =    T
(PID.TID 0000.0001) S/R ADAUTODIFF_INADMODE_UNSET: useSEAICE =    T
(PID.TID 0000.0001) S/R ADAUTODIFF_INADMODE_UNSET: useGGL90    =    F
(PID.TID 0000.0001) S/R ADAUTODIFF_INADMODE_UNSET: useSALT_PLUME    =    F
(PID.TID 0000.0001) S/R ADAUTODIFF_INADMODE_UNSET: viscFacAdj = 1.00000000000000E+00
(PID.TID 0000.0001)  MDS_READ_FIELD: opening global file: adm_sst_step.0000000001.data
(PID.TID 0000.0001)  MDS_WRITE_FIELD: it,rec,kS,kL,kH=       1    -9  23   1   1 file=adm_sst_step.0000000001
(PID.TID 0000.0001) ADREAD:  tid,vid, irec, length, prec(x2)=    39     1     2      672  8 64 fname=tapelev3_1_the_main_loop_etan
(PID.TID 0000.0001) ADREAD:  tid,vid, irec, length, prec(x2)=    39     2     2      672  8 64 fname=tapelev3_2_the_main_loop_taux0
(PID.TID 0000.0001) ADREAD:  tid,vid, irec, length, prec(x2)=    39     3     2      672  8 64 fname=tapelev3_3_the_main_loop_taux1
(PID.TID 0000.0001) ADREAD:  tid,vid, irec, length, prec(x2)=    39     4     2      672  8 64 fname=tapelev3_4_the_main_loop_tauy0
(PID.TID 0000.0001) ADREAD:  tid,vid, irec, length, prec(x2)=    39     5     2      672  8 64 fname=tapelev3_5_the_main_loop_tauy1
(PID.TID 0000.0001) ADREAD:  tid,vid, irec, length, prec(x2)=    39     6     2      672  8 64 fname=tapelev3_6_the_main_loop_qnet0
(PID.TID 0000.0001) ADREAD:  tid,vid, irec, length, prec(x2)=    39     7     2      672  8 64 fname=tapelev3_7_the_main_loop_qnet1
(PID.TID 0000.0001) ADREAD:  tid,vid, irec, length, prec(x2)=    39     8     2      672  8 64 fname=tapelev3_8_the_main_loop_empmr0
(PID.TID 0000.0001) ADREAD:  tid,vid, irec, length, prec(x2)=    39     9     2      672  8 64 fname=tapelev3_9_the_main_loop_empmr1
(PID.TID 0000.0001) ADREAD:  tid,vid, irec, length, prec(x2)=    39    10     2      672  8 64 fname=tapelev3_10_the_main_loop_sst0
(PID.TID 0000.0001) ADREAD:  tid,vid, irec, length, prec(x2)=    39    11     2      672  8 64 fname=tapelev3_11_the_main_loop_sst1
(PID.TID 0000.0001) ADREAD:  tid,vid, irec, length, prec(x2)=    39    12     2      672  8 64 fname=tapelev3_12_the_main_loop_sss0
(PID.TID 0000.0001) ADREAD:  tid,vid, irec, length, prec(x2)=    39    13     2      672  8 64 fname=tapelev3_13_the_main_loop_sss1
(PID.TID 0000.0001) ADREAD:  tid,vid, irec, length, prec(x2)=    39    14     2      672  8 64 fname=tapelev3_14_the_main_loop_saltflux0
(PID.TID 0000.0001) ADREAD:  tid,vid, irec, length, prec(x2)=    39    15     2      672  8 64 fname=tapelev3_15_the_main_loop_saltflux1
(PID.TID 0000.0001) ADREAD:  tid,vid, irec, length, prec(x2)=    39    16     2      672  8 64 fname=tapelev3_16_the_main_loop_qsw0
(PID.TID 0000.0001) ADREAD:  tid,vid, irec, length, prec(x2)=    39    17     2      672  8 64 fname=tapelev3_17_the_main_loop_qsw1
(PID.TID 0000.0001) ADREAD:  tid,vid, irec, length, prec(x2)=    39    18     2      672  8 64 fname=tapelev3_18_the_main_loop_pload0
(PID.TID 0000.0001) ADREAD:  tid,vid, irec, length, prec(x2)=    39    19     2      672  8 64 fname=tapelev3_19_the_main_loop_pload1
(PID.TID 0000.0001) ADREAD:  tid,vid, irec, length, prec(x2)=    39    20     2      672  8 64 fname=tapelev3_20_the_main_loop_etah
(PID.TID 0000.0001) ADREAD:  tid,vid, irec, length, prec(x2)=    39    21     2      672  8 64 fname=tapelev3_21_the_main_loop_detahdt
(PID.TID 0000.0001) ADREAD:  tid,vid, irec, length, prec(x2)=    39    22     2      672  8 64 fname=tapelev3_22_the_main_loop_pmepr
(PID.TID 0000.0001) ADREAD:  tid,vid, irec, length, prec(x2)=    39    23     2    15456  8 64 fname=tapelev3_23_the_main_loop_gtnm1
(PID.TID 0000.0001) ADREAD:  tid,vid, irec, length, prec(x2)=    39    24     2    15456  8 64 fname=tapelev3_24_the_main_loop_gsnm1
(PID.TID 0000.0001) ADREAD:  tid,vid, irec, length, prec(x2)=    39    25     2    15456  8 64 fname=tapelev3_25_the_main_loop_gunm1
(PID.TID 0000.0001) ADREAD:  tid,vid, irec, length, prec(x2)=    39    26     2    15456  8 64 fname=tapelev3_26_the_main_loop_gvnm1
(PID.TID 0000.0001) ADREAD:  tid,vid, irec, length, prec(x2)=    39    27     2    15456  8 64 fname=tapelev3_27_the_main_loop_theta
(PID.TID 0000.0001) ADREAD:  tid,vid, irec, length, prec(x2)=    39    28     2    15456  8 64 fname=tapelev3_28_the_main_loop_salt
(PID.TID 0000.0001) ADREAD:  tid,vid, irec, length, prec(x2)=    39    29     2    15456  8 64 fname=tapelev3_29_the_main_loop_uvel
(PID.TID 0000.0001) ADREAD:  tid,vid, irec, length, prec(x2)=    39    30     2    15456  8 64 fname=tapelev3_30_the_main_loop_vvel
(PID.TID 0000.0001) ADREAD:  tid,vid, irec, length, prec(x2)=    39    31     2    15456  8 64 fname=tapelev3_31_the_main_loop_wvel
(PID.TID 0000.0001) ADREAD:  tid,vid, irec, length, prec(x2)=    39    32     2    15456  8 64 fname=tapelev3_32_the_main_loop_totphihyd
(PID.TID 0000.0001) ADREAD:  tid,vid, irec, length, prec(x2)=    39    35     2    15456  8 64 fname=tapelev3_35_the_main_loop_uveld
(PID.TID 0000.0001) ADREAD:  tid,vid, irec, length, prec(x2)=    39    36     2    15456  8 64 fname=tapelev3_36_the_main_loop_vveld
(PID.TID 0000.0001) ADREAD:  tid,vid, irec, length, prec(x2)=    39    37     2      672  8 64 fname=tapelev3_37_the_main_loop_etanm1
(PID.TID 0000.0001) ADREAD:  tid,vid, irec, length, prec(x2)=    39    38     2    15456  8 64 fname=tapelev3_38_the_main_loop_unm1
(PID.TID 0000.0001) ADREAD:  tid,vid, irec, length, prec(x2)=    39    39     2    15456  8 64 fname=tapelev3_39_the_main_loop_vnm1
(PID.TID 0000.0001) ADREAD:  tid,vid, irec, length, prec(x2)=    39    40     2      672  8 64 fname=tapelev3_40_the_main_loop_areamask0
(PID.TID 0000.0001) ADREAD:  tid,vid, irec, length, prec(x2)=    39    41     2      672  8 64 fname=tapelev3_41_the_main_loop_areamask1
(PID.TID 0000.0001) ADREAD:  tid,vid, irec, length, prec(x2)=    39    42     2      672  8 64 fname=tapelev3_42_the_main_loop_hflux0
(PID.TID 0000.0001) ADREAD:  tid,vid, irec, length, prec(x2)=    39    43     2      672  8 64 fname=tapelev3_43_the_main_loop_hflux1
(PID.TID 0000.0001) ADREAD:  tid,vid, irec, length, prec(x2)=    39    44     2      672  8 64 fname=tapelev3_44_the_main_loop_sflux0
(PID.TID 0000.0001) ADREAD:  tid,vid, irec, length, prec(x2)=    39    45     2      672  8 64 fname=tapelev3_45_the_main_loop_sflux1
(PID.TID 0000.0001) ADREAD:  tid,vid, irec, length, prec(x2)=    39    46     2      672  8 64 fname=tapelev3_46_the_main_loop_ustress0
(PID.TID 0000.0001) ADREAD:  tid,vid, irec, length, prec(x2)=    39    47     2      672  8 64 fname=tapelev3_47_the_main_loop_ustress1
(PID.TID 0000.0001) ADREAD:  tid,vid, irec, length, prec(x2)=    39    48     2      672  8 64 fname=tapelev3_48_the_main_loop_vstress0
(PID.TID 0000.0001) ADREAD:  tid,vid, irec, length, prec(x2)=    39    49     2      672  8 64 fname=tapelev3_49_the_main_loop_vstress1
(PID.TID 0000.0001) ADREAD:  tid,vid, irec, length, prec(x2)=    39    50     2      672  8 64 fname=tapelev3_50_the_main_loop_wspeed0
(PID.TID 0000.0001) ADREAD:  tid,vid, irec, length, prec(x2)=    39    51     2      672  8 64 fname=tapelev3_51_the_main_loop_wspeed1
(PID.TID 0000.0001) ADREAD:  tid,vid, irec, length, prec(x2)=    39    54     2      672  8 64 fname=tapelev3_54_the_main_loop_runoff0
(PID.TID 0000.0001) ADREAD:  tid,vid, irec, length, prec(x2)=    39    55     2      672  8 64 fname=tapelev3_55_the_main_loop_runoff1
(PID.TID 0000.0001) ADREAD:  tid,vid, irec, length, prec(x2)=    39    56     2      672  8 64 fname=tapelev3_56_the_main_loop_apressure0
(PID.TID 0000.0001) ADREAD:  tid,vid, irec, length, prec(x2)=    39    57     2      672  8 64 fname=tapelev3_57_the_main_loop_apressure1
(PID.TID 0000.0001) ADREAD:  tid,vid, irec, length, prec(x2)=    39    58     2      672  8 64 fname=tapelev3_58_the_main_loop_siceload
(PID.TID 0000.0001) ADREAD:  tid,vid, irec, length, prec(x2)=    39    59     2      672  8 64 fname=tapelev3_59_the_main_loop_climsss0
(PID.TID 0000.0001) ADREAD:  tid,vid, irec, length, prec(x2)=    39    60     2      672  8 64 fname=tapelev3_60_the_main_loop_climsss1
(PID.TID 0000.0001) ADREAD:  tid,vid, irec, length, prec(x2)=    39    61     2      672  8 64 fname=tapelev3_61_the_main_loop_climsst0
(PID.TID 0000.0001) ADREAD:  tid,vid, irec, length, prec(x2)=    39    62     2      672  8 64 fname=tapelev3_62_the_main_loop_climsst1
(PID.TID 0000.0001) ADREAD:  tid,vid, irec, length, prec(x2)=    39    63     2      672  8 64 fname=tapelev3_63_the_main_loop_saltflx0
(PID.TID 0000.0001) ADREAD:  tid,vid, irec, length, prec(x2)=    39    64     2      672  8 64 fname=tapelev3_64_the_main_loop_saltflx1
(PID.TID 0000.0001) ADREAD:  tid,vid, irec, length, prec(x2)=    39    65     2      672  8 64 fname=tapelev3_65_the_main_loop_aqh0
(PID.TID 0000.0001) ADREAD:  tid,vid, irec, length, prec(x2)=    39    66     2      672  8 64 fname=tapelev3_66_the_main_loop_aqh1
(PID.TID 0000.0001) ADREAD:  tid,vid, irec, length, prec(x2)=    39    67     2      672  8 64 fname=tapelev3_67_the_main_loop_atemp0
(PID.TID 0000.0001) ADREAD:  tid,vid, irec, length, prec(x2)=    39    68     2      672  8 64 fname=tapelev3_68_the_main_loop_atemp1
(PID.TID 0000.0001) ADREAD:  tid,vid, irec, length, prec(x2)=    39    69     2      672  8 64 fname=tapelev3_69_the_main_loop_precip0
(PID.TID 0000.0001) ADREAD:  tid,vid, irec, length, prec(x2)=    39    70     2      672  8 64 fname=tapelev3_70_the_main_loop_precip1
(PID.TID 0000.0001) ADREAD:  tid,vid, irec, length, prec(x2)=    39    73     2      672  8 64 fname=tapelev3_73_the_main_loop_snowprecip0
(PID.TID 0000.0001) ADREAD:  tid,vid, irec, length, prec(x2)=    39    74     2      672  8 64 fname=tapelev3_74_the_main_loop_snowprecip1
(PID.TID 0000.0001) ADREAD:  tid,vid, irec, length, prec(x2)=    39    75     2      672  8 64 fname=tapelev3_75_the_main_loop_swdown0
(PID.TID 0000.0001) ADREAD:  tid,vid, irec, length, prec(x2)=    39    76     2      672  8 64 fname=tapelev3_76_the_main_loop_swdown1
(PID.TID 0000.0001) ADREAD:  tid,vid, irec, length, prec(x2)=    39    77     2      672  8 64 fname=tapelev3_77_the_main_loop_lwdown0
(PID.TID 0000.0001) ADREAD:  tid,vid, irec, length, prec(x2)=    39    78     2      672  8 64 fname=tapelev3_78_the_main_loop_lwdown1
(PID.TID 0000.0001) ADREAD:  tid,vid, irec, length, prec(x2)=    39    79     2      672  8 64 fname=tapelev3_79_the_main_loop_uwind0
(PID.TID 0000.0001) ADREAD:  tid,vid, irec, length, prec(x2)=    39    80     2      672  8 64 fname=tapelev3_80_the_main_loop_uwind1
(PID.TID 0000.0001) ADREAD:  tid,vid, irec, length, prec(x2)=    39    81     2      672  8 64 fname=tapelev3_81_the_main_loop_vwind0
(PID.TID 0000.0001) ADREAD:  tid,vid, irec, length, prec(x2)=    39    82     2      672  8 64 fname=tapelev3_82_the_main_loop_vwind1
(PID.TID 0000.0001) ADREAD:  tid,vid, irec, length, prec(x2)=    39    83     2     6048  8 64 fname=tapelev3_83_the_main_loop_xx_gentim2d
(PID.TID 0000.0001) ADREAD:  tid,vid, irec, length, prec(x2)=    39    84     2     6048  8 64 fname=tapelev3_84_the_main_loop_xx_gentim2d0
(PID.TID 0000.0001) ADREAD:  tid,vid, irec, length, prec(x2)=    39    85     2     6048  8 64 fname=tapelev3_85_the_main_loop_xx_gentim2d1
(PID.TID 0000.0001) ADREAD:  tid,vid, irec, length, prec(x2)=    39    87     2      672  8 64 fname=tapelev3_87_the_main_loop_phihydlow
(PID.TID 0000.0001) ADREAD:  tid,vid, irec, length, prec(x2)=    39    88     2      672  8 64 fname=tapelev3_88_the_main_loop_area
(PID.TID 0000.0001) ADREAD:  tid,vid, irec, length, prec(x2)=    39    89     2      672  8 64 fname=tapelev3_89_the_main_loop_heff
(PID.TID 0000.0001) ADREAD:  tid,vid, irec, length, prec(x2)=    39    90     2      672  8 64 fname=tapelev3_90_the_main_loop_hsnow
(PID.TID 0000.0001) ADREAD:  tid,vid, irec, length, prec(x2)=    39    92     2      672  8 64 fname=tapelev3_92_the_main_loop_uice
(PID.TID 0000.0001) ADREAD:  tid,vid, irec, length, prec(x2)=    39    93     2      672  8 64 fname=tapelev3_93_the_main_loop_vice
(PID.TID 0000.0001) ADREAD:  tid,vid, irec, length, prec(x2)=    39    96     2     4704  8 64 fname=tapelev3_96_the_main_loop_tices
(PID.TID 0000.0001) ADREAD:  tid,vid, irec, length, prec(x2)=    39    97     2      672  8 64 fname=tapelev3_97_the_main_loop_dwatn
(PID.TID 0000.0001) ADREAD:  tid,vid, irec, length, prec(x2)=    39    98     2      672  8 64 fname=tapelev3_98_the_main_loop_stressdivergencex
(PID.TID 0000.0001) ADREAD:  tid,vid, irec, length, prec(x2)=    39    99     2      672  8 64 fname=tapelev3_99_the_main_loop_stressdivergencey
(PID.TID 0000.0001) ADREAD:  tid,vid, irec, length, prec(x2)=    39   100     2      672  8 64 fname=tapelev3_100_the_main_loop_seaice_sigma1
(PID.TID 0000.0001) ADREAD:  tid,vid, irec, length, prec(x2)=    39   101     2      672  8 64 fname=tapelev3_101_the_main_loop_seaice_sigma2
(PID.TID 0000.0001) ADREAD:  tid,vid, irec, length, prec(x2)=    39   102     2      672  8 64 fname=tapelev3_102_the_main_loop_seaice_sigma12
(PID.TID 0000.0001) ADREAD:  tid,vid, irec, length, prec(x2)=    39   103     2      672  8 64 fname=tapelev3_103_the_main_loop_hsalt
(PID.TID 0000.0001) ADWRITE: tid,vid, irec, length, prec(x2)=    41     1     1      672  8 64 fname=tapelev2_1_the_main_loop_etan
(PID.TID 0000.0001) ADWRITE:  tapeFileCounter =     1
(PID.TID 0000.0001) ADWRITE: tid,vid, irec, length, prec(x2)=    41     2     1      672  8 64 fname=tapelev2_2_the_main_loop_taux0
(PID.TID 0000.0001) ADWRITE:  tapeFileCounter =     2
(PID.TID 0000.0001) ADWRITE: tid,vid, irec, length, prec(x2)=    41     3     1      672  8 64 fname=tapelev2_3_the_main_loop_taux1
(PID.TID 0000.0001) ADWRITE:  tapeFileCounter =     3
(PID.TID 0000.0001) ADWRITE: tid,vid, irec, length, prec(x2)=    41     4     1      672  8 64 fname=tapelev2_4_the_main_loop_tauy0
(PID.TID 0000.0001) ADWRITE:  tapeFileCounter =     4
(PID.TID 0000.0001) ADWRITE: tid,vid, irec, length, prec(x2)=    41     5     1      672  8 64 fname=tapelev2_5_the_main_loop_tauy1
(PID.TID 0000.0001) ADWRITE:  tapeFileCounter =     5
(PID.TID 0000.0001) ADWRITE: tid,vid, irec, length, prec(x2)=    41     6     1      672  8 64 fname=tapelev2_6_the_main_loop_qnet0
(PID.TID 0000.0001) ADWRITE:  tapeFileCounter =     6
(PID.TID 0000.0001) ADWRITE: tid,vid, irec, length, prec(x2)=    41     7     1      672  8 64 fname=tapelev2_7_the_main_loop_qnet1
(PID.TID 0000.0001) ADWRITE:  tapeFileCounter =     7
(PID.TID 0000.0001) ADWRITE: tid,vid, irec, length, prec(x2)=    41     8     1      672  8 64 fname=tapelev2_8_the_main_loop_empmr0
(PID.TID 0000.0001) ADWRITE:  tapeFileCounter =     8
(PID.TID 0000.0001) ADWRITE: tid,vid, irec, length, prec(x2)=    41     9     1      672  8 64 fname=tapelev2_9_the_main_loop_empmr1
(PID.TID 0000.0001) ADWRITE:  tapeFileCounter =     9
(PID.TID 0000.0001) ADWRITE: tid,vid, irec, length, prec(x2)=    41    10     1      672  8 64 fname=tapelev2_10_the_main_loop_sst0
(PID.TID 0000.0001) ADWRITE:  tapeFileCounter =    10
(PID.TID 0000.0001) ADWRITE: tid,vid, irec, length, prec(x2)=    41    11     1      672  8 64 fname=tapelev2_11_the_main_loop_sst1
(PID.TID 0000.0001) ADWRITE:  tapeFileCounter =    11
(PID.TID 0000.0001) ADWRITE: tid,vid, irec, length, prec(x2)=    41    12     1      672  8 64 fname=tapelev2_12_the_main_loop_sss0
(PID.TID 0000.0001) ADWRITE:  tapeFileCounter =    12
(PID.TID 0000.0001) ADWRITE: tid,vid, irec, length, prec(x2)=    41    13     1      672  8 64 fname=tapelev2_13_the_main_loop_sss1
(PID.TID 0000.0001) ADWRITE:  tapeFileCounter =    13
(PID.TID 0000.0001) ADWRITE: tid,vid, irec, length, prec(x2)=    41    14     1      672  8 64 fname=tapelev2_14_the_main_loop_saltflux0
(PID.TID 0000.0001) ADWRITE:  tapeFileCounter =    14
(PID.TID 0000.0001) ADWRITE: tid,vid, irec, length, prec(x2)=    41    15     1      672  8 64 fname=tapelev2_15_the_main_loop_saltflux1
(PID.TID 0000.0001) ADWRITE:  tapeFileCounter =    15
(PID.TID 0000.0001) ADWRITE: tid,vid, irec, length, prec(x2)=    41    16     1      672  8 64 fname=tapelev2_16_the_main_loop_qsw0
(PID.TID 0000.0001) ADWRITE:  tapeFileCounter =    16
(PID.TID 0000.0001) ADWRITE: tid,vid, irec, length, prec(x2)=    41    17     1      672  8 64 fname=tapelev2_17_the_main_loop_qsw1
(PID.TID 0000.0001) ADWRITE:  tapeFileCounter =    17
(PID.TID 0000.0001) ADWRITE: tid,vid, irec, length, prec(x2)=    41    18     1      672  8 64 fname=tapelev2_18_the_main_loop_pload0
(PID.TID 0000.0001) ADWRITE:  tapeFileCounter =    18
(PID.TID 0000.0001) ADWRITE: tid,vid, irec, length, prec(x2)=    41    19     1      672  8 64 fname=tapelev2_19_the_main_loop_pload1
(PID.TID 0000.0001) ADWRITE:  tapeFileCounter =    19
(PID.TID 0000.0001) ADWRITE: tid,vid, irec, length, prec(x2)=    41    20     1      672  8 64 fname=tapelev2_20_the_main_loop_etah
(PID.TID 0000.0001) ADWRITE:  tapeFileCounter =    20
(PID.TID 0000.0001) ADWRITE: tid,vid, irec, length, prec(x2)=    41    21     1      672  8 64 fname=tapelev2_21_the_main_loop_detahdt
(PID.TID 0000.0001) ADWRITE:  tapeFileCounter =    21
(PID.TID 0000.0001) ADWRITE: tid,vid, irec, length, prec(x2)=    41    22     1      672  8 64 fname=tapelev2_22_the_main_loop_pmepr
(PID.TID 0000.0001) ADWRITE:  tapeFileCounter =    22
(PID.TID 0000.0001) ADWRITE: tid,vid, irec, length, prec(x2)=    41    23     1    15456  8 64 fname=tapelev2_23_the_main_loop_gtnm1
(PID.TID 0000.0001) ADWRITE:  tapeFileCounter =    23
(PID.TID 0000.0001) ADWRITE:  tapeFileCounter =    24
(PID.TID 0000.0001) ADWRITE:  tapeFileCounter =    25
(PID.TID 0000.0001) ADWRITE:  tapeFileCounter =    26
(PID.TID 0000.0001) ADWRITE:  tapeFileCounter =    27
(PID.TID 0000.0001) ADWRITE:  tapeFileCounter =    28
(PID.TID 0000.0001) ADWRITE:  tapeFileCounter =    29
(PID.TID 0000.0001) ADWRITE:  tapeFileCounter =    30
(PID.TID 0000.0001) ADWRITE:  tapeFileCounter =    31
(PID.TID 0000.0001) ADWRITE:  tapeFileCounter =    32
(PID.TID 0000.0001) ADWRITE:  tapeFileCounter =    33
(PID.TID 0000.0001) ADWRITE:  tapeFileCounter =    34
(PID.TID 0000.0001) ADWRITE:  tapeFileCounter =    35
(PID.TID 0000.0001) ADWRITE:  tapeFileCounter =    36
(PID.TID 0000.0001) ADWRITE:  tapeFileCounter =    37
(PID.TID 0000.0001) ADWRITE:  tapeFileCounter =    38
(PID.TID 0000.0001) ADWRITE:  tapeFileCounter =    39
(PID.TID 0000.0001) ADWRITE:  tapeFileCounter =    40
(PID.TID 0000.0001) ADWRITE:  tapeFileCounter =    41
(PID.TID 0000.0001) ADWRITE:  tapeFileCounter =    42
(PID.TID 0000.0001) ADWRITE:  tapeFileCounter =    43
(PID.TID 0000.0001) ADWRITE:  tapeFileCounter =    44
(PID.TID 0000.0001) ADWRITE:  tapeFileCounter =    45
(PID.TID 0000.0001) ADWRITE: tid,vid, irec, length, prec(x2)=    41    24     1    15456  8 64 fname=tapelev2_24_the_main_loop_gsnm1
(PID.TID 0000.0001) ADWRITE:  tapeFileCounter =    46
(PID.TID 0000.0001) ADWRITE:  tapeFileCounter =    47
(PID.TID 0000.0001) ADWRITE:  tapeFileCounter =    48
(PID.TID 0000.0001) ADWRITE:  tapeFileCounter =    49
(PID.TID 0000.0001) ADWRITE:  tapeFileCounter =    50
(PID.TID 0000.0001) ADWRITE:  tapeFileCounter =    51
(PID.TID 0000.0001) ADWRITE:  tapeFileCounter =    52
(PID.TID 0000.0001) ADWRITE:  tapeFileCounter =    53
(PID.TID 0000.0001) ADWRITE:  tapeFileCounter =    54
(PID.TID 0000.0001) ADWRITE:  tapeFileCounter =    55
(PID.TID 0000.0001) ADWRITE:  tapeFileCounter =    56
(PID.TID 0000.0001) ADWRITE:  tapeFileCounter =    57
(PID.TID 0000.0001) ADWRITE:  tapeFileCounter =    58
(PID.TID 0000.0001) ADWRITE:  tapeFileCounter =    59
(PID.TID 0000.0001) ADWRITE:  tapeFileCounter =    60
(PID.TID 0000.0001) ADWRITE:  tapeFileCounter =    61
(PID.TID 0000.0001) ADWRITE:  tapeFileCounter =    62
(PID.TID 0000.0001) ADWRITE:  tapeFileCounter =    63
(PID.TID 0000.0001) ADWRITE:  tapeFileCounter =    64
(PID.TID 0000.0001) ADWRITE:  tapeFileCounter =    65
(PID.TID 0000.0001) ADWRITE:  tapeFileCounter =    66
(PID.TID 0000.0001) ADWRITE:  tapeFileCounter =    67
(PID.TID 0000.0001) ADWRITE:  tapeFileCounter =    68
(PID.TID 0000.0001) ADWRITE: tid,vid, irec, length, prec(x2)=    41    25     1    15456  8 64 fname=tapelev2_25_the_main_loop_gunm1
(PID.TID 0000.0001) ADWRITE:  tapeFileCounter =    69
(PID.TID 0000.0001) ADWRITE:  tapeFileCounter =    70
(PID.TID 0000.0001) ADWRITE:  tapeFileCounter =    71
(PID.TID 0000.0001) ADWRITE:  tapeFileCounter =    72
(PID.TID 0000.0001) ADWRITE:  tapeFileCounter =    73
(PID.TID 0000.0001) ADWRITE:  tapeFileCounter =    74
(PID.TID 0000.0001) ADWRITE:  tapeFileCounter =    75
(PID.TID 0000.0001) ADWRITE:  tapeFileCounter =    76
(PID.TID 0000.0001) ADWRITE:  tapeFileCounter =    77
(PID.TID 0000.0001) ADWRITE:  tapeFileCounter =    78
(PID.TID 0000.0001) ADWRITE:  tapeFileCounter =    79
(PID.TID 0000.0001) ADWRITE:  tapeFileCounter =    80
(PID.TID 0000.0001) ADWRITE:  tapeFileCounter =    81
(PID.TID 0000.0001) ADWRITE:  tapeFileCounter =    82
(PID.TID 0000.0001) ADWRITE:  tapeFileCounter =    83
(PID.TID 0000.0001) ADWRITE:  tapeFileCounter =    84
(PID.TID 0000.0001) ADWRITE:  tapeFileCounter =    85
(PID.TID 0000.0001) ADWRITE:  tapeFileCounter =    86
(PID.TID 0000.0001) ADWRITE:  tapeFileCounter =    87
(PID.TID 0000.0001) ADWRITE:  tapeFileCounter =    88
(PID.TID 0000.0001) ADWRITE:  tapeFileCounter =    89
(PID.TID 0000.0001) ADWRITE:  tapeFileCounter =    90
(PID.TID 0000.0001) ADWRITE:  tapeFileCounter =    91
(PID.TID 0000.0001) ADWRITE: tid,vid, irec, length, prec(x2)=    41    26     1    15456  8 64 fname=tapelev2_26_the_main_loop_gvnm1
(PID.TID 0000.0001) ADWRITE:  tapeFileCounter =    92
(PID.TID 0000.0001) ADWRITE:  tapeFileCounter =    93
(PID.TID 0000.0001) ADWRITE:  tapeFileCounter =    94
(PID.TID 0000.0001) ADWRITE:  tapeFileCounter =    95
(PID.TID 0000.0001) ADWRITE:  tapeFileCounter =    96
(PID.TID 0000.0001) ADWRITE:  tapeFileCounter =    97
(PID.TID 0000.0001) ADWRITE:  tapeFileCounter =    98
(PID.TID 0000.0001) ADWRITE:  tapeFileCounter =    99
(PID.TID 0000.0001) ADWRITE:  tapeFileCounter =   100
(PID.TID 0000.0001) ADWRITE:  tapeFileCounter =   101
(PID.TID 0000.0001) ADWRITE:  tapeFileCounter =   102
(PID.TID 0000.0001) ADWRITE:  tapeFileCounter =   103
(PID.TID 0000.0001) ADWRITE:  tapeFileCounter =   104
(PID.TID 0000.0001) ADWRITE:  tapeFileCounter =   105
(PID.TID 0000.0001) ADWRITE:  tapeFileCounter =   106
(PID.TID 0000.0001) ADWRITE:  tapeFileCounter =   107
(PID.TID 0000.0001) ADWRITE:  tapeFileCounter =   108
(PID.TID 0000.0001) ADWRITE:  tapeFileCounter =   109
(PID.TID 0000.0001) ADWRITE:  tapeFileCounter =   110
(PID.TID 0000.0001) ADWRITE:  tapeFileCounter =   111
(PID.TID 0000.0001) ADWRITE:  tapeFileCounter =   112
(PID.TID 0000.0001) ADWRITE:  tapeFileCounter =   113
(PID.TID 0000.0001) ADWRITE:  tapeFileCounter =   114
(PID.TID 0000.0001) ADWRITE: tid,vid, irec, length, prec(x2)=    41    27     1    15456  8 64 fname=tapelev2_27_the_main_loop_theta
(PID.TID 0000.0001) ADWRITE:  tapeFileCounter =   115
(PID.TID 0000.0001) ADWRITE:  tapeFileCounter =   116
(PID.TID 0000.0001) ADWRITE:  tapeFileCounter =   117
(PID.TID 0000.0001) ADWRITE:  tapeFileCounter =   118
(PID.TID 0000.0001) ADWRITE:  tapeFileCounter =   119
(PID.TID 0000.0001) ADWRITE:  tapeFileCounter =   120
(PID.TID 0000.0001) ADWRITE:  tapeFileCounter =   121
(PID.TID 0000.0001) ADWRITE:  tapeFileCounter =   122
(PID.TID 0000.0001) ADWRITE:  tapeFileCounter =   123
(PID.TID 0000.0001) ADWRITE:  tapeFileCounter =   124
(PID.TID 0000.0001) ADWRITE:  tapeFileCounter =   125
(PID.TID 0000.0001) ADWRITE:  tapeFileCounter =   126
(PID.TID 0000.0001) ADWRITE:  tapeFileCounter =   127
(PID.TID 0000.0001) ADWRITE:  tapeFileCounter =   128
(PID.TID 0000.0001) ADWRITE:  tapeFileCounter =   129
(PID.TID 0000.0001) ADWRITE:  tapeFileCounter =   130
(PID.TID 0000.0001) ADWRITE:  tapeFileCounter =   131
(PID.TID 0000.0001) ADWRITE:  tapeFileCounter =   132
(PID.TID 0000.0001) ADWRITE:  tapeFileCounter =   133
(PID.TID 0000.0001) ADWRITE:  tapeFileCounter =   134
(PID.TID 0000.0001) ADWRITE:  tapeFileCounter =   135
(PID.TID 0000.0001) ADWRITE:  tapeFileCounter =   136
(PID.TID 0000.0001) ADWRITE:  tapeFileCounter =   137
(PID.TID 0000.0001) ADWRITE: tid,vid, irec, length, prec(x2)=    41    28     1    15456  8 64 fname=tapelev2_28_the_main_loop_salt
(PID.TID 0000.0001) ADWRITE:  tapeFileCounter =   138
(PID.TID 0000.0001) ADWRITE:  tapeFileCounter =   139
(PID.TID 0000.0001) ADWRITE:  tapeFileCounter =   140
(PID.TID 0000.0001) ADWRITE:  tapeFileCounter =   141
(PID.TID 0000.0001) ADWRITE:  tapeFileCounter =   142
(PID.TID 0000.0001) ADWRITE:  tapeFileCounter =   143
(PID.TID 0000.0001) ADWRITE:  tapeFileCounter =   144
(PID.TID 0000.0001) ADWRITE:  tapeFileCounter =   145
(PID.TID 0000.0001) ADWRITE:  tapeFileCounter =   146
(PID.TID 0000.0001) ADWRITE:  tapeFileCounter =   147
(PID.TID 0000.0001) ADWRITE:  tapeFileCounter =   148
(PID.TID 0000.0001) ADWRITE:  tapeFileCounter =   149
(PID.TID 0000.0001) ADWRITE:  tapeFileCounter =   150
(PID.TID 0000.0001) ADWRITE:  tapeFileCounter =   151
(PID.TID 0000.0001) ADWRITE:  tapeFileCounter =   152
(PID.TID 0000.0001) ADWRITE:  tapeFileCounter =   153
(PID.TID 0000.0001) ADWRITE:  tapeFileCounter =   154
(PID.TID 0000.0001) ADWRITE:  tapeFileCounter =   155
(PID.TID 0000.0001) ADWRITE:  tapeFileCounter =   156
(PID.TID 0000.0001) ADWRITE:  tapeFileCounter =   157
(PID.TID 0000.0001) ADWRITE:  tapeFileCounter =   158
(PID.TID 0000.0001) ADWRITE:  tapeFileCounter =   159
(PID.TID 0000.0001) ADWRITE:  tapeFileCounter =   160
(PID.TID 0000.0001) ADWRITE: tid,vid, irec, length, prec(x2)=    41    29     1    15456  8 64 fname=tapelev2_29_the_main_loop_uvel
(PID.TID 0000.0001) ADWRITE:  tapeFileCounter =   161
(PID.TID 0000.0001) ADWRITE:  tapeFileCounter =   162
(PID.TID 0000.0001) ADWRITE:  tapeFileCounter =   163
(PID.TID 0000.0001) ADWRITE:  tapeFileCounter =   164
(PID.TID 0000.0001) ADWRITE:  tapeFileCounter =   165
(PID.TID 0000.0001) ADWRITE:  tapeFileCounter =   166
(PID.TID 0000.0001) ADWRITE:  tapeFileCounter =   167
(PID.TID 0000.0001) ADWRITE:  tapeFileCounter =   168
(PID.TID 0000.0001) ADWRITE:  tapeFileCounter =   169
(PID.TID 0000.0001) ADWRITE:  tapeFileCounter =   170
(PID.TID 0000.0001) ADWRITE:  tapeFileCounter =   171
(PID.TID 0000.0001) ADWRITE:  tapeFileCounter =   172
(PID.TID 0000.0001) ADWRITE:  tapeFileCounter =   173
(PID.TID 0000.0001) ADWRITE:  tapeFileCounter =   174
(PID.TID 0000.0001) ADWRITE:  tapeFileCounter =   175
(PID.TID 0000.0001) ADWRITE:  tapeFileCounter =   176
(PID.TID 0000.0001) ADWRITE:  tapeFileCounter =   177
(PID.TID 0000.0001) ADWRITE:  tapeFileCounter =   178
(PID.TID 0000.0001) ADWRITE:  tapeFileCounter =   179
(PID.TID 0000.0001) ADWRITE:  tapeFileCounter =   180
(PID.TID 0000.0001) ADWRITE:  tapeFileCounter =   181
(PID.TID 0000.0001) ADWRITE:  tapeFileCounter =   182
(PID.TID 0000.0001) ADWRITE:  tapeFileCounter =   183
(PID.TID 0000.0001) ADWRITE: tid,vid, irec, length, prec(x2)=    41    30     1    15456  8 64 fname=tapelev2_30_the_main_loop_vvel
(PID.TID 0000.0001) ADWRITE:  tapeFileCounter =   184
(PID.TID 0000.0001) ADWRITE:  tapeFileCounter =   185
(PID.TID 0000.0001) ADWRITE:  tapeFileCounter =   186
(PID.TID 0000.0001) ADWRITE:  tapeFileCounter =   187
(PID.TID 0000.0001) ADWRITE:  tapeFileCounter =   188
(PID.TID 0000.0001) ADWRITE:  tapeFileCounter =   189
(PID.TID 0000.0001) ADWRITE:  tapeFileCounter =   190
(PID.TID 0000.0001) ADWRITE:  tapeFileCounter =   191
(PID.TID 0000.0001) ADWRITE:  tapeFileCounter =   192
(PID.TID 0000.0001) ADWRITE:  tapeFileCounter =   193
(PID.TID 0000.0001) ADWRITE:  tapeFileCounter =   194
(PID.TID 0000.0001) ADWRITE:  tapeFileCounter =   195
(PID.TID 0000.0001) ADWRITE:  tapeFileCounter =   196
(PID.TID 0000.0001) ADWRITE:  tapeFileCounter =   197
(PID.TID 0000.0001) ADWRITE:  tapeFileCounter =   198
(PID.TID 0000.0001) ADWRITE:  tapeFileCounter =   199
(PID.TID 0000.0001) ADWRITE:  tapeFileCounter =   200
(PID.TID 0000.0001) ADWRITE:  tapeFileCounter =   201
(PID.TID 0000.0001) ADWRITE:  tapeFileCounter =   202
(PID.TID 0000.0001) ADWRITE:  tapeFileCounter =   203
(PID.TID 0000.0001) ADWRITE:  tapeFileCounter =   204
(PID.TID 0000.0001) ADWRITE:  tapeFileCounter =   205
(PID.TID 0000.0001) ADWRITE:  tapeFileCounter =   206
(PID.TID 0000.0001) ADWRITE: tid,vid, irec, length, prec(x2)=    41    31     1    15456  8 64 fname=tapelev2_31_the_main_loop_wvel
(PID.TID 0000.0001) ADWRITE:  tapeFileCounter =   207
(PID.TID 0000.0001) ADWRITE:  tapeFileCounter =   208
(PID.TID 0000.0001) ADWRITE:  tapeFileCounter =   209
(PID.TID 0000.0001) ADWRITE:  tapeFileCounter =   210
(PID.TID 0000.0001) ADWRITE:  tapeFileCounter =   211
(PID.TID 0000.0001) ADWRITE:  tapeFileCounter =   212
(PID.TID 0000.0001) ADWRITE:  tapeFileCounter =   213
(PID.TID 0000.0001) ADWRITE:  tapeFileCounter =   214
(PID.TID 0000.0001) ADWRITE:  tapeFileCounter =   215
(PID.TID 0000.0001) ADWRITE:  tapeFileCounter =   216
(PID.TID 0000.0001) ADWRITE:  tapeFileCounter =   217
(PID.TID 0000.0001) ADWRITE:  tapeFileCounter =   218
(PID.TID 0000.0001) ADWRITE:  tapeFileCounter =   219
(PID.TID 0000.0001) ADWRITE:  tapeFileCounter =   220
(PID.TID 0000.0001) ADWRITE:  tapeFileCounter =   221
(PID.TID 0000.0001) ADWRITE:  tapeFileCounter =   222
(PID.TID 0000.0001) ADWRITE:  tapeFileCounter =   223
(PID.TID 0000.0001) ADWRITE:  tapeFileCounter =   224
(PID.TID 0000.0001) ADWRITE:  tapeFileCounter =   225
(PID.TID 0000.0001) ADWRITE:  tapeFileCounter =   226
(PID.TID 0000.0001) ADWRITE:  tapeFileCounter =   227
(PID.TID 0000.0001) ADWRITE:  tapeFileCounter =   228
(PID.TID 0000.0001) ADWRITE:  tapeFileCounter =   229
(PID.TID 0000.0001) ADWRITE: tid,vid, irec, length, prec(x2)=    41    32     1    15456  8 64 fname=tapelev2_32_the_main_loop_totphihyd
(PID.TID 0000.0001) ADWRITE:  tapeFileCounter =   230
(PID.TID 0000.0001) ADWRITE:  tapeFileCounter =   231
(PID.TID 0000.0001) ADWRITE:  tapeFileCounter =   232
(PID.TID 0000.0001) ADWRITE:  tapeFileCounter =   233
(PID.TID 0000.0001) ADWRITE:  tapeFileCounter =   234
(PID.TID 0000.0001) ADWRITE:  tapeFileCounter =   235
(PID.TID 0000.0001) ADWRITE:  tapeFileCounter =   236
(PID.TID 0000.0001) ADWRITE:  tapeFileCounter =   237
(PID.TID 0000.0001) ADWRITE:  tapeFileCounter =   238
(PID.TID 0000.0001) ADWRITE:  tapeFileCounter =   239
(PID.TID 0000.0001) ADWRITE:  tapeFileCounter =   240
(PID.TID 0000.0001) ADWRITE:  tapeFileCounter =   241
(PID.TID 0000.0001) ADWRITE:  tapeFileCounter =   242
(PID.TID 0000.0001) ADWRITE:  tapeFileCounter =   243
(PID.TID 0000.0001) ADWRITE:  tapeFileCounter =   244
(PID.TID 0000.0001) ADWRITE:  tapeFileCounter =   245
(PID.TID 0000.0001) ADWRITE:  tapeFileCounter =   246
(PID.TID 0000.0001) ADWRITE:  tapeFileCounter =   247
(PID.TID 0000.0001) ADWRITE:  tapeFileCounter =   248
(PID.TID 0000.0001) ADWRITE:  tapeFileCounter =   249
(PID.TID 0000.0001) ADWRITE:  tapeFileCounter =   250
(PID.TID 0000.0001) ADWRITE:  tapeFileCounter =   251
(PID.TID 0000.0001) ADWRITE:  tapeFileCounter =   252
(PID.TID 0000.0001) ADWRITE: tid,vid, irec, length, prec(x2)=    41    35     1    15456  8 64 fname=tapelev2_35_the_main_loop_uveld
(PID.TID 0000.0001) ADWRITE:  tapeFileCounter =   253
(PID.TID 0000.0001) ADWRITE:  tapeFileCounter =   254
(PID.TID 0000.0001) ADWRITE:  tapeFileCounter =   255
(PID.TID 0000.0001) ADWRITE:  tapeFileCounter =   256
(PID.TID 0000.0001) ADWRITE:  tapeFileCounter =   257
(PID.TID 0000.0001) ADWRITE:  tapeFileCounter =   258
(PID.TID 0000.0001) ADWRITE:  tapeFileCounter =   259
(PID.TID 0000.0001) ADWRITE:  tapeFileCounter =   260
(PID.TID 0000.0001) ADWRITE:  tapeFileCounter =   261
(PID.TID 0000.0001) ADWRITE:  tapeFileCounter =   262
(PID.TID 0000.0001) ADWRITE:  tapeFileCounter =   263
(PID.TID 0000.0001) ADWRITE:  tapeFileCounter =   264
(PID.TID 0000.0001) ADWRITE:  tapeFileCounter =   265
(PID.TID 0000.0001) ADWRITE:  tapeFileCounter =   266
(PID.TID 0000.0001) ADWRITE:  tapeFileCounter =   267
(PID.TID 0000.0001) ADWRITE:  tapeFileCounter =   268
(PID.TID 0000.0001) ADWRITE:  tapeFileCounter =   269
(PID.TID 0000.0001) ADWRITE:  tapeFileCounter =   270
(PID.TID 0000.0001) ADWRITE:  tapeFileCounter =   271
(PID.TID 0000.0001) ADWRITE:  tapeFileCounter =   272
(PID.TID 0000.0001) ADWRITE:  tapeFileCounter =   273
(PID.TID 0000.0001) ADWRITE:  tapeFileCounter =   274
(PID.TID 0000.0001) ADWRITE:  tapeFileCounter =   275
(PID.TID 0000.0001) ADWRITE: tid,vid, irec, length, prec(x2)=    41    36     1    15456  8 64 fname=tapelev2_36_the_main_loop_vveld
(PID.TID 0000.0001) ADWRITE:  tapeFileCounter =   276
(PID.TID 0000.0001) ADWRITE:  tapeFileCounter =   277
(PID.TID 0000.0001) ADWRITE:  tapeFileCounter =   278
(PID.TID 0000.0001) ADWRITE:  tapeFileCounter =   279
(PID.TID 0000.0001) ADWRITE:  tapeFileCounter =   280
(PID.TID 0000.0001) ADWRITE:  tapeFileCounter =   281
(PID.TID 0000.0001) ADWRITE:  tapeFileCounter =   282
(PID.TID 0000.0001) ADWRITE:  tapeFileCounter =   283
(PID.TID 0000.0001) ADWRITE:  tapeFileCounter =   284
(PID.TID 0000.0001) ADWRITE:  tapeFileCounter =   285
(PID.TID 0000.0001) ADWRITE:  tapeFileCounter =   286
(PID.TID 0000.0001) ADWRITE:  tapeFileCounter =   287
(PID.TID 0000.0001) ADWRITE:  tapeFileCounter =   288
(PID.TID 0000.0001) ADWRITE:  tapeFileCounter =   289
(PID.TID 0000.0001) ADWRITE:  tapeFileCounter =   290
(PID.TID 0000.0001) ADWRITE:  tapeFileCounter =   291
(PID.TID 0000.0001) ADWRITE:  tapeFileCounter =   292
(PID.TID 0000.0001) ADWRITE:  tapeFileCounter =   293
(PID.TID 0000.0001) ADWRITE:  tapeFileCounter =   294
(PID.TID 0000.0001) ADWRITE:  tapeFileCounter =   295
(PID.TID 0000.0001) ADWRITE:  tapeFileCounter =   296
(PID.TID 0000.0001) ADWRITE:  tapeFileCounter =   297
(PID.TID 0000.0001) ADWRITE:  tapeFileCounter =   298
(PID.TID 0000.0001) ADWRITE: tid,vid, irec, length, prec(x2)=    41    37     1      672  8 64 fname=tapelev2_37_the_main_loop_etanm1
(PID.TID 0000.0001) ADWRITE:  tapeFileCounter =   299
(PID.TID 0000.0001) ADWRITE: tid,vid, irec, length, prec(x2)=    41    38     1    15456  8 64 fname=tapelev2_38_the_main_loop_unm1
(PID.TID 0000.0001) ADWRITE:  tapeFileCounter =   300
(PID.TID 0000.0001) ADWRITE:  tapeFileCounter =   301
(PID.TID 0000.0001) ADWRITE:  tapeFileCounter =   302
(PID.TID 0000.0001) ADWRITE:  tapeFileCounter =   303
(PID.TID 0000.0001) ADWRITE:  tapeFileCounter =   304
(PID.TID 0000.0001) ADWRITE:  tapeFileCounter =   305
(PID.TID 0000.0001) ADWRITE:  tapeFileCounter =   306
(PID.TID 0000.0001) ADWRITE:  tapeFileCounter =   307
(PID.TID 0000.0001) ADWRITE:  tapeFileCounter =   308
(PID.TID 0000.0001) ADWRITE:  tapeFileCounter =   309
(PID.TID 0000.0001) ADWRITE:  tapeFileCounter =   310
(PID.TID 0000.0001) ADWRITE:  tapeFileCounter =   311
(PID.TID 0000.0001) ADWRITE:  tapeFileCounter =   312
(PID.TID 0000.0001) ADWRITE:  tapeFileCounter =   313
(PID.TID 0000.0001) ADWRITE:  tapeFileCounter =   314
(PID.TID 0000.0001) ADWRITE:  tapeFileCounter =   315
(PID.TID 0000.0001) ADWRITE:  tapeFileCounter =   316
(PID.TID 0000.0001) ADWRITE:  tapeFileCounter =   317
(PID.TID 0000.0001) ADWRITE:  tapeFileCounter =   318
(PID.TID 0000.0001) ADWRITE:  tapeFileCounter =   319
(PID.TID 0000.0001) ADWRITE:  tapeFileCounter =   320
(PID.TID 0000.0001) ADWRITE:  tapeFileCounter =   321
(PID.TID 0000.0001) ADWRITE:  tapeFileCounter =   322
(PID.TID 0000.0001) ADWRITE: tid,vid, irec, length, prec(x2)=    41    39     1    15456  8 64 fname=tapelev2_39_the_main_loop_vnm1
(PID.TID 0000.0001) ADWRITE:  tapeFileCounter =   323
(PID.TID 0000.0001) ADWRITE:  tapeFileCounter =   324
(PID.TID 0000.0001) ADWRITE:  tapeFileCounter =   325
(PID.TID 0000.0001) ADWRITE:  tapeFileCounter =   326
(PID.TID 0000.0001) ADWRITE:  tapeFileCounter =   327
(PID.TID 0000.0001) ADWRITE:  tapeFileCounter =   328
(PID.TID 0000.0001) ADWRITE:  tapeFileCounter =   329
(PID.TID 0000.0001) ADWRITE:  tapeFileCounter =   330
(PID.TID 0000.0001) ADWRITE:  tapeFileCounter =   331
(PID.TID 0000.0001) ADWRITE:  tapeFileCounter =   332
(PID.TID 0000.0001) ADWRITE:  tapeFileCounter =   333
(PID.TID 0000.0001) ADWRITE:  tapeFileCounter =   334
(PID.TID 0000.0001) ADWRITE:  tapeFileCounter =   335
(PID.TID 0000.0001) ADWRITE:  tapeFileCounter =   336
(PID.TID 0000.0001) ADWRITE:  tapeFileCounter =   337
(PID.TID 0000.0001) ADWRITE:  tapeFileCounter =   338
(PID.TID 0000.0001) ADWRITE:  tapeFileCounter =   339
(PID.TID 0000.0001) ADWRITE:  tapeFileCounter =   340
(PID.TID 0000.0001) ADWRITE:  tapeFileCounter =   341
(PID.TID 0000.0001) ADWRITE:  tapeFileCounter =   342
(PID.TID 0000.0001) ADWRITE:  tapeFileCounter =   343
(PID.TID 0000.0001) ADWRITE:  tapeFileCounter =   344
(PID.TID 0000.0001) ADWRITE:  tapeFileCounter =   345
(PID.TID 0000.0001) ADWRITE: tid,vid, irec, length, prec(x2)=    41    40     1      672  8 64 fname=tapelev2_40_the_main_loop_areamask0
(PID.TID 0000.0001) ADWRITE:  tapeFileCounter =   346
(PID.TID 0000.0001) ADWRITE: tid,vid, irec, length, prec(x2)=    41    41     1      672  8 64 fname=tapelev2_41_the_main_loop_areamask1
(PID.TID 0000.0001) ADWRITE:  tapeFileCounter =   347
(PID.TID 0000.0001) ADWRITE: tid,vid, irec, length, prec(x2)=    41    42     1      672  8 64 fname=tapelev2_42_the_main_loop_hflux0
(PID.TID 0000.0001) ADWRITE:  tapeFileCounter =   348
(PID.TID 0000.0001) ADWRITE: tid,vid, irec, length, prec(x2)=    41    43     1      672  8 64 fname=tapelev2_43_the_main_loop_hflux1
(PID.TID 0000.0001) ADWRITE:  tapeFileCounter =   349
(PID.TID 0000.0001) ADWRITE: tid,vid, irec, length, prec(x2)=    41    44     1      672  8 64 fname=tapelev2_44_the_main_loop_sflux0
(PID.TID 0000.0001) ADWRITE:  tapeFileCounter =   350
(PID.TID 0000.0001) ADWRITE: tid,vid, irec, length, prec(x2)=    41    45     1      672  8 64 fname=tapelev2_45_the_main_loop_sflux1
(PID.TID 0000.0001) ADWRITE:  tapeFileCounter =   351
(PID.TID 0000.0001) ADWRITE: tid,vid, irec, length, prec(x2)=    41    46     1      672  8 64 fname=tapelev2_46_the_main_loop_ustress0
(PID.TID 0000.0001) ADWRITE:  tapeFileCounter =   352
(PID.TID 0000.0001) ADWRITE: tid,vid, irec, length, prec(x2)=    41    47     1      672  8 64 fname=tapelev2_47_the_main_loop_ustress1
(PID.TID 0000.0001) ADWRITE:  tapeFileCounter =   353
(PID.TID 0000.0001) ADWRITE: tid,vid, irec, length, prec(x2)=    41    48     1      672  8 64 fname=tapelev2_48_the_main_loop_vstress0
(PID.TID 0000.0001) ADWRITE:  tapeFileCounter =   354
(PID.TID 0000.0001) ADWRITE: tid,vid, irec, length, prec(x2)=    41    49     1      672  8 64 fname=tapelev2_49_the_main_loop_vstress1
(PID.TID 0000.0001) ADWRITE:  tapeFileCounter =   355
(PID.TID 0000.0001) ADWRITE: tid,vid, irec, length, prec(x2)=    41    50     1      672  8 64 fname=tapelev2_50_the_main_loop_wspeed0
(PID.TID 0000.0001) ADWRITE:  tapeFileCounter =   356
(PID.TID 0000.0001) ADWRITE: tid,vid, irec, length, prec(x2)=    41    51     1      672  8 64 fname=tapelev2_51_the_main_loop_wspeed1
(PID.TID 0000.0001) ADWRITE:  tapeFileCounter =   357
(PID.TID 0000.0001) ADWRITE: tid,vid, irec, length, prec(x2)=    41    54     1      672  8 64 fname=tapelev2_54_the_main_loop_runoff0
(PID.TID 0000.0001) ADWRITE:  tapeFileCounter =   358
(PID.TID 0000.0001) ADWRITE: tid,vid, irec, length, prec(x2)=    41    55     1      672  8 64 fname=tapelev2_55_the_main_loop_runoff1
(PID.TID 0000.0001) ADWRITE:  tapeFileCounter =   359
(PID.TID 0000.0001) ADWRITE: tid,vid, irec, length, prec(x2)=    41    56     1      672  8 64 fname=tapelev2_56_the_main_loop_apressure0
(PID.TID 0000.0001) ADWRITE:  tapeFileCounter =   360
(PID.TID 0000.0001) ADWRITE: tid,vid, irec, length, prec(x2)=    41    57     1      672  8 64 fname=tapelev2_57_the_main_loop_apressure1
(PID.TID 0000.0001) ADWRITE:  tapeFileCounter =   361
(PID.TID 0000.0001) ADWRITE: tid,vid, irec, length, prec(x2)=    41    58     1      672  8 64 fname=tapelev2_58_the_main_loop_siceload
(PID.TID 0000.0001) ADWRITE:  tapeFileCounter =   362
(PID.TID 0000.0001) ADWRITE: tid,vid, irec, length, prec(x2)=    41    59     1      672  8 64 fname=tapelev2_59_the_main_loop_climsss0
(PID.TID 0000.0001) ADWRITE:  tapeFileCounter =   363
(PID.TID 0000.0001) ADWRITE: tid,vid, irec, length, prec(x2)=    41    60     1      672  8 64 fname=tapelev2_60_the_main_loop_climsss1
(PID.TID 0000.0001) ADWRITE:  tapeFileCounter =   364
(PID.TID 0000.0001) ADWRITE: tid,vid, irec, length, prec(x2)=    41    61     1      672  8 64 fname=tapelev2_61_the_main_loop_climsst0
(PID.TID 0000.0001) ADWRITE:  tapeFileCounter =   365
(PID.TID 0000.0001) ADWRITE: tid,vid, irec, length, prec(x2)=    41    62     1      672  8 64 fname=tapelev2_62_the_main_loop_climsst1
(PID.TID 0000.0001) ADWRITE:  tapeFileCounter =   366
(PID.TID 0000.0001) ADWRITE: tid,vid, irec, length, prec(x2)=    41    63     1      672  8 64 fname=tapelev2_63_the_main_loop_saltflx0
(PID.TID 0000.0001) ADWRITE:  tapeFileCounter =   367
(PID.TID 0000.0001) ADWRITE: tid,vid, irec, length, prec(x2)=    41    64     1      672  8 64 fname=tapelev2_64_the_main_loop_saltflx1
(PID.TID 0000.0001) ADWRITE:  tapeFileCounter =   368
(PID.TID 0000.0001) ADWRITE: tid,vid, irec, length, prec(x2)=    41    65     1      672  8 64 fname=tapelev2_65_the_main_loop_aqh0
(PID.TID 0000.0001) ADWRITE:  tapeFileCounter =   369
(PID.TID 0000.0001) ADWRITE: tid,vid, irec, length, prec(x2)=    41    66     1      672  8 64 fname=tapelev2_66_the_main_loop_aqh1
(PID.TID 0000.0001) ADWRITE:  tapeFileCounter =   370
(PID.TID 0000.0001) ADWRITE: tid,vid, irec, length, prec(x2)=    41    67     1      672  8 64 fname=tapelev2_67_the_main_loop_atemp0
(PID.TID 0000.0001) ADWRITE:  tapeFileCounter =   371
(PID.TID 0000.0001) ADWRITE: tid,vid, irec, length, prec(x2)=    41    68     1      672  8 64 fname=tapelev2_68_the_main_loop_atemp1
(PID.TID 0000.0001) ADWRITE:  tapeFileCounter =   372
(PID.TID 0000.0001) ADWRITE: tid,vid, irec, length, prec(x2)=    41    69     1      672  8 64 fname=tapelev2_69_the_main_loop_precip0
(PID.TID 0000.0001) ADWRITE:  tapeFileCounter =   373
(PID.TID 0000.0001) ADWRITE: tid,vid, irec, length, prec(x2)=    41    70     1      672  8 64 fname=tapelev2_70_the_main_loop_precip1
(PID.TID 0000.0001) ADWRITE:  tapeFileCounter =   374
(PID.TID 0000.0001) ADWRITE: tid,vid, irec, length, prec(x2)=    41    73     1      672  8 64 fname=tapelev2_73_the_main_loop_snowprecip0
(PID.TID 0000.0001) ADWRITE:  tapeFileCounter =   375
(PID.TID 0000.0001) ADWRITE: tid,vid, irec, length, prec(x2)=    41    74     1      672  8 64 fname=tapelev2_74_the_main_loop_snowprecip1
(PID.TID 0000.0001) ADWRITE:  tapeFileCounter =   376
(PID.TID 0000.0001) ADWRITE: tid,vid, irec, length, prec(x2)=    41    75     1      672  8 64 fname=tapelev2_75_the_main_loop_swdown0
(PID.TID 0000.0001) ADWRITE:  tapeFileCounter =   377
(PID.TID 0000.0001) ADWRITE: tid,vid, irec, length, prec(x2)=    41    76     1      672  8 64 fname=tapelev2_76_the_main_loop_swdown1
(PID.TID 0000.0001) ADWRITE:  tapeFileCounter =   378
(PID.TID 0000.0001) ADWRITE: tid,vid, irec, length, prec(x2)=    41    77     1      672  8 64 fname=tapelev2_77_the_main_loop_lwdown0
(PID.TID 0000.0001) ADWRITE:  tapeFileCounter =   379
(PID.TID 0000.0001) ADWRITE: tid,vid, irec, length, prec(x2)=    41    78     1      672  8 64 fname=tapelev2_78_the_main_loop_lwdown1
(PID.TID 0000.0001) ADWRITE:  tapeFileCounter =   380
(PID.TID 0000.0001) ADWRITE: tid,vid, irec, length, prec(x2)=    41    79     1      672  8 64 fname=tapelev2_79_the_main_loop_uwind0
(PID.TID 0000.0001) ADWRITE:  tapeFileCounter =   381
(PID.TID 0000.0001) ADWRITE: tid,vid, irec, length, prec(x2)=    41    80     1      672  8 64 fname=tapelev2_80_the_main_loop_uwind1
(PID.TID 0000.0001) ADWRITE:  tapeFileCounter =   382
(PID.TID 0000.0001) ADWRITE: tid,vid, irec, length, prec(x2)=    41    81     1      672  8 64 fname=tapelev2_81_the_main_loop_vwind0
(PID.TID 0000.0001) ADWRITE:  tapeFileCounter =   383
(PID.TID 0000.0001) ADWRITE: tid,vid, irec, length, prec(x2)=    41    82     1      672  8 64 fname=tapelev2_82_the_main_loop_vwind1
(PID.TID 0000.0001) ADWRITE:  tapeFileCounter =   384
(PID.TID 0000.0001) ADWRITE: tid,vid, irec, length, prec(x2)=    41    83     1     6048  8 64 fname=tapelev2_83_the_main_loop_xx_gentim2d
(PID.TID 0000.0001) ADWRITE:  tapeFileCounter =   385
(PID.TID 0000.0001) ADWRITE:  tapeFileCounter =   386
(PID.TID 0000.0001) ADWRITE:  tapeFileCounter =   387
(PID.TID 0000.0001) ADWRITE:  tapeFileCounter =   388
(PID.TID 0000.0001) ADWRITE:  tapeFileCounter =   389
(PID.TID 0000.0001) ADWRITE:  tapeFileCounter =   390
(PID.TID 0000.0001) ADWRITE:  tapeFileCounter =   391
(PID.TID 0000.0001) ADWRITE:  tapeFileCounter =   392
(PID.TID 0000.0001) ADWRITE:  tapeFileCounter =   393
(PID.TID 0000.0001) ADWRITE: tid,vid, irec, length, prec(x2)=    41    84     1     6048  8 64 fname=tapelev2_84_the_main_loop_xx_gentim2d0
(PID.TID 0000.0001) ADWRITE:  tapeFileCounter =   394
(PID.TID 0000.0001) ADWRITE:  tapeFileCounter =   395
(PID.TID 0000.0001) ADWRITE:  tapeFileCounter =   396
(PID.TID 0000.0001) ADWRITE:  tapeFileCounter =   397
(PID.TID 0000.0001) ADWRITE:  tapeFileCounter =   398
(PID.TID 0000.0001) ADWRITE:  tapeFileCounter =   399
(PID.TID 0000.0001) ADWRITE:  tapeFileCounter =   400
(PID.TID 0000.0001) ADWRITE:  tapeFileCounter =   401
(PID.TID 0000.0001) ADWRITE:  tapeFileCounter =   402
(PID.TID 0000.0001) ADWRITE: tid,vid, irec, length, prec(x2)=    41    85     1     6048  8 64 fname=tapelev2_85_the_main_loop_xx_gentim2d1
(PID.TID 0000.0001) ADWRITE:  tapeFileCounter =   403
(PID.TID 0000.0001) ADWRITE:  tapeFileCounter =   404
(PID.TID 0000.0001) ADWRITE:  tapeFileCounter =   405
(PID.TID 0000.0001) ADWRITE:  tapeFileCounter =   406
(PID.TID 0000.0001) ADWRITE:  tapeFileCounter =   407
(PID.TID 0000.0001) ADWRITE:  tapeFileCounter =   408
(PID.TID 0000.0001) ADWRITE:  tapeFileCounter =   409
(PID.TID 0000.0001) ADWRITE:  tapeFileCounter =   410
(PID.TID 0000.0001) ADWRITE:  tapeFileCounter =   411
(PID.TID 0000.0001) ADWRITE: tid,vid, irec, length, prec(x2)=    41    87     1      672  8 64 fname=tapelev2_87_the_main_loop_phihydlow
(PID.TID 0000.0001) ADWRITE:  tapeFileCounter =   412
(PID.TID 0000.0001) ADWRITE: tid,vid, irec, length, prec(x2)=    41    88     1      672  8 64 fname=tapelev2_88_the_main_loop_area
(PID.TID 0000.0001) ADWRITE:  tapeFileCounter =   413
(PID.TID 0000.0001) ADWRITE: tid,vid, irec, length, prec(x2)=    41    89     1      672  8 64 fname=tapelev2_89_the_main_loop_heff
(PID.TID 0000.0001) ADWRITE:  tapeFileCounter =   414
(PID.TID 0000.0001) ADWRITE: tid,vid, irec, length, prec(x2)=    41    90     1      672  8 64 fname=tapelev2_90_the_main_loop_hsnow
(PID.TID 0000.0001) ADWRITE:  tapeFileCounter =   415
(PID.TID 0000.0001) ADWRITE: tid,vid, irec, length, prec(x2)=    41    92     1      672  8 64 fname=tapelev2_92_the_main_loop_uice
(PID.TID 0000.0001) ADWRITE:  tapeFileCounter =   416
(PID.TID 0000.0001) ADWRITE: tid,vid, irec, length, prec(x2)=    41    93     1      672  8 64 fname=tapelev2_93_the_main_loop_vice
(PID.TID 0000.0001) ADWRITE:  tapeFileCounter =   417
(PID.TID 0000.0001) ADWRITE: tid,vid, irec, length, prec(x2)=    41    96     1     4704  8 64 fname=tapelev2_96_the_main_loop_tices
(PID.TID 0000.0001) ADWRITE:  tapeFileCounter =   418
(PID.TID 0000.0001) ADWRITE:  tapeFileCounter =   419
(PID.TID 0000.0001) ADWRITE:  tapeFileCounter =   420
(PID.TID 0000.0001) ADWRITE:  tapeFileCounter =   421
(PID.TID 0000.0001) ADWRITE:  tapeFileCounter =   422
(PID.TID 0000.0001) ADWRITE:  tapeFileCounter =   423
(PID.TID 0000.0001) ADWRITE:  tapeFileCounter =   424
(PID.TID 0000.0001) ADWRITE: tid,vid, irec, length, prec(x2)=    41    97     1      672  8 64 fname=tapelev2_97_the_main_loop_dwatn
(PID.TID 0000.0001) ADWRITE:  tapeFileCounter =   425
(PID.TID 0000.0001) ADWRITE: tid,vid, irec, length, prec(x2)=    41    98     1      672  8 64 fname=tapelev2_98_the_main_loop_stressdivergencex
(PID.TID 0000.0001) ADWRITE:  tapeFileCounter =   426
(PID.TID 0000.0001) ADWRITE: tid,vid, irec, length, prec(x2)=    41    99     1      672  8 64 fname=tapelev2_99_the_main_loop_stressdivergencey
(PID.TID 0000.0001) ADWRITE:  tapeFileCounter =   427
(PID.TID 0000.0001) ADWRITE: tid,vid, irec, length, prec(x2)=    41   100     1      672  8 64 fname=tapelev2_100_the_main_loop_seaice_sigma1
(PID.TID 0000.0001) ADWRITE:  tapeFileCounter =   428
(PID.TID 0000.0001) ADWRITE: tid,vid, irec, length, prec(x2)=    41   101     1      672  8 64 fname=tapelev2_101_the_main_loop_seaice_sigma2
(PID.TID 0000.0001) ADWRITE:  tapeFileCounter =   429
(PID.TID 0000.0001) ADWRITE: tid,vid, irec, length, prec(x2)=    41   102     1      672  8 64 fname=tapelev2_102_the_main_loop_seaice_sigma12
(PID.TID 0000.0001) ADWRITE:  tapeFileCounter =   430
(PID.TID 0000.0001) ADWRITE: tid,vid, irec, length, prec(x2)=    41   103     1      672  8 64 fname=tapelev2_103_the_main_loop_hsalt
(PID.TID 0000.0001) ADWRITE:  tapeFileCounter =   431
(PID.TID 0000.0001) whio : write lev 2 rec   1
(PID.TID 0000.0001)  MDS_READ_FIELD: opening global file: xx_atemp.effective.0000000001.data
(PID.TID 0000.0001) EXF_SET_FLD: processing field "climsss",  file: SSS_monthly.labsea1979
(PID.TID 0000.0001) EXF_SET_FLD:   myIter, count0, count1:         4      1      2
(PID.TID 0000.0001) EXF_SET_FLD:   first, changed, fac:   F   F    0.49453551912568305
(PID.TID 0000.0001) EXF_SET_FLD: processing field "uwind",  file: u10m.labsea1979
(PID.TID 0000.0001) EXF_SET_FLD:   myIter, count0, count1:         4      1      2
(PID.TID 0000.0001) EXF_SET_FLD:   first, changed, fac:   F   F    0.49453551912568305
(PID.TID 0000.0001) EXF_SET_FLD: processing field "vwind",  file: v10m.labsea1979
(PID.TID 0000.0001) EXF_SET_FLD:   myIter, count0, count1:         4      1      2
(PID.TID 0000.0001) EXF_SET_FLD:   first, changed, fac:   F   F    0.49453551912568305
(PID.TID 0000.0001) EXF_SET_FLD: processing field "atemp",  file: tair.labsea1979
(PID.TID 0000.0001) EXF_SET_FLD:   myIter, count0, count1:         4      1      2
(PID.TID 0000.0001) EXF_SET_FLD:   first, changed, fac:   F   F    0.49453551912568305
(PID.TID 0000.0001) EXF_SET_FLD: processing field "aqh",  file: qa.labsea1979
(PID.TID 0000.0001) EXF_SET_FLD:   myIter, count0, count1:         4      1      2
(PID.TID 0000.0001) EXF_SET_FLD:   first, changed, fac:   F   F    0.49453551912568305
(PID.TID 0000.0001) EXF_SET_FLD: processing field "precip",  file: prate.labsea1979
(PID.TID 0000.0001) EXF_SET_FLD:   myIter, count0, count1:         4      1      2
(PID.TID 0000.0001) EXF_SET_FLD:   first, changed, fac:   F   F    0.49453551912568305
(PID.TID 0000.0001) EXF_SET_FLD: processing field "swdown",  file: fsh.labsea1979
(PID.TID 0000.0001) EXF_SET_FLD:   myIter, count0, count1:         4      1      2
(PID.TID 0000.0001) EXF_SET_FLD:   first, changed, fac:   F   F    0.49453551912568305
(PID.TID 0000.0001) EXF_SET_FLD: processing field "lwdown",  file: flo.labsea1979
(PID.TID 0000.0001) EXF_SET_FLD:   myIter, count0, count1:         4      1      2
(PID.TID 0000.0001) EXF_SET_FLD:   first, changed, fac:   F   F    0.49453551912568305
DEBUG_STATS_RL: Uice pre  iter (SEAICE_LSR  1)  min= -6.64884179984298E-03
DEBUG_STATS_RL: Uice pre  iter (SEAICE_LSR  1)  max=  1.92542735136310E-01
DEBUG_STATS_RL: Uice pre  iter (SEAICE_LSR  1) mean=  6.47686246163816E-02
DEBUG_STATS_RL: Uice pre  iter (SEAICE_LSR  1) S.D.=  6.59732959909972E-02
DEBUG_STATS_RL: Vice pre  iter (SEAICE_LSR  1)  min= -1.58345599530559E-01
DEBUG_STATS_RL: Vice pre  iter (SEAICE_LSR  1)  max=  1.04255589228155E-01
DEBUG_STATS_RL: Vice pre  iter (SEAICE_LSR  1) mean= -2.61122078454132E-02
DEBUG_STATS_RL: Vice pre  iter (SEAICE_LSR  1) S.D.=  4.54292968520685E-02
DEBUG_STATS_RL: Uice pre  iter (SEAICE_LSR  2)  min= -7.39582706169583E-03
DEBUG_STATS_RL: Uice pre  iter (SEAICE_LSR  2)  max=  2.22032103672184E-01
DEBUG_STATS_RL: Uice pre  iter (SEAICE_LSR  2) mean=  6.99701895633639E-02
DEBUG_STATS_RL: Uice pre  iter (SEAICE_LSR  2) S.D.=  7.26089122440114E-02
DEBUG_STATS_RL: Vice pre  iter (SEAICE_LSR  2)  min= -1.71770480186521E-01
DEBUG_STATS_RL: Vice pre  iter (SEAICE_LSR  2)  max=  1.08496327276559E-01
DEBUG_STATS_RL: Vice pre  iter (SEAICE_LSR  2) mean= -3.10609864818265E-02
DEBUG_STATS_RL: Vice pre  iter (SEAICE_LSR  2) S.D.=  4.99863315300799E-02
DEBUG_STATS_RL:                EtaN (DYNAMICS)  min= -1.33494653835899E-01
DEBUG_STATS_RL:                EtaN (DYNAMICS)  max=  3.19990607833373E-01
DEBUG_STATS_RL:                EtaN (DYNAMICS) mean= -2.52532747894183E-03
DEBUG_STATS_RL:                EtaN (DYNAMICS) S.D.=  7.76931608941039E-02
DEBUG_STATS_RL:                Uvel (DYNAMICS)  min= -4.51228100181699E-02
DEBUG_STATS_RL:                Uvel (DYNAMICS)  max=  8.23946614698039E-02
DEBUG_STATS_RL:                Uvel (DYNAMICS) mean=  4.46006533351786E-03
DEBUG_STATS_RL:                Uvel (DYNAMICS) S.D.=  1.25503402183565E-02
DEBUG_STATS_RL:                Vvel (DYNAMICS)  min= -5.43131072024495E-02
DEBUG_STATS_RL:                Vvel (DYNAMICS)  max=  6.64710959483302E-02
DEBUG_STATS_RL:                Vvel (DYNAMICS) mean=  9.07394962405455E-04
DEBUG_STATS_RL:                Vvel (DYNAMICS) S.D.=  1.42265213439462E-02
DEBUG_STATS_RL:                Wvel (DYNAMICS)  min= -1.50094143875166E-04
DEBUG_STATS_RL:                Wvel (DYNAMICS)  max=  2.67848367720703E-04
DEBUG_STATS_RL:                Wvel (DYNAMICS) mean= -2.83768310637974E-07
DEBUG_STATS_RL:                Wvel (DYNAMICS) S.D.=  2.30755404976203E-05
DEBUG_STATS_RL:               Theta (DYNAMICS)  min= -1.95323356757650E+00
DEBUG_STATS_RL:               Theta (DYNAMICS)  max=  1.32611729219858E+01
DEBUG_STATS_RL:               Theta (DYNAMICS) mean=  2.41624287435038E+00
DEBUG_STATS_RL:               Theta (DYNAMICS) S.D.=  2.57467251754838E+00
DEBUG_STATS_RL:                Salt (DYNAMICS)  min=  2.76192995644599E+01
DEBUG_STATS_RL:                Salt (DYNAMICS)  max=  3.54511687806856E+01
DEBUG_STATS_RL:                Salt (DYNAMICS) mean=  3.39368869963862E+01
DEBUG_STATS_RL:                Salt (DYNAMICS) S.D.=  1.15395653842225E+00
DEBUG_STATS_RL:                  Gu (DYNAMICS)  min= -3.06969616935982E-02
DEBUG_STATS_RL:                  Gu (DYNAMICS)  max=  9.72073114926341E-02
DEBUG_STATS_RL:                  Gu (DYNAMICS) mean=  3.10151082317653E-03
DEBUG_STATS_RL:                  Gu (DYNAMICS) S.D.=  1.41052551008710E-02
DEBUG_STATS_RL:                  Gv (DYNAMICS)  min= -9.53132079806593E-02
DEBUG_STATS_RL:                  Gv (DYNAMICS)  max=  5.33682068181781E-02
DEBUG_STATS_RL:                  Gv (DYNAMICS) mean= -5.06243016752949E-03
DEBUG_STATS_RL:                  Gv (DYNAMICS) S.D.=  1.53588463679172E-02
DEBUG_STATS_RL:               GuNm1 (DYNAMICS)  min= -2.35357489189911E-07
DEBUG_STATS_RL:               GuNm1 (DYNAMICS)  max=  1.71456102315441E-07
DEBUG_STATS_RL:               GuNm1 (DYNAMICS) mean= -2.01481983921378E-09
DEBUG_STATS_RL:               GuNm1 (DYNAMICS) S.D.=  4.45062316312349E-08
DEBUG_STATS_RL:               GvNm1 (DYNAMICS)  min= -1.49109605789104E-07
DEBUG_STATS_RL:               GvNm1 (DYNAMICS)  max=  1.05797935490742E-07
DEBUG_STATS_RL:               GvNm1 (DYNAMICS) mean= -1.04937902583504E-09
DEBUG_STATS_RL:               GvNm1 (DYNAMICS) S.D.=  3.09410614929419E-08
DEBUG_STATS_RL:               GtNm1 (DYNAMICS)  min=  0.00000000000000E+00
DEBUG_STATS_RL:               GtNm1 (DYNAMICS)  max=  0.00000000000000E+00
DEBUG_STATS_RL:               GtNm1 (DYNAMICS) mean=  0.00000000000000E+00
DEBUG_STATS_RL:               GtNm1 (DYNAMICS) S.D.=  0.00000000000000E+00
DEBUG_STATS_RL:               GsNm1 (DYNAMICS)  min=  0.00000000000000E+00
DEBUG_STATS_RL:               GsNm1 (DYNAMICS)  max=  0.00000000000000E+00
DEBUG_STATS_RL:               GsNm1 (DYNAMICS) mean=  0.00000000000000E+00
DEBUG_STATS_RL:               GsNm1 (DYNAMICS) S.D.=  0.00000000000000E+00
DEBUG_STATS_RL:    cg2d_b (SOLVE_FOR_PRESSURE)  min= -7.47095948274198E+03
DEBUG_STATS_RL:    cg2d_b (SOLVE_FOR_PRESSURE)  max=  2.18029189648793E+03
DEBUG_STATS_RL:    cg2d_b (SOLVE_FOR_PRESSURE) mean=  3.74787608355594E-13
DEBUG_STATS_RL:    cg2d_b (SOLVE_FOR_PRESSURE) S.D.=  9.11464014140524E+02
 cg2d: Sum(rhs),rhsMax =   5.26662047306559E-15  1.20244643428826E+00
DEBUG_STATS_RL:    cg2d_x (SOLVE_FOR_PRESSURE)  min= -1.27317826454390E+00
DEBUG_STATS_RL:    cg2d_x (SOLVE_FOR_PRESSURE)  max=  3.19622316797689E+00
DEBUG_STATS_RL:    cg2d_x (SOLVE_FOR_PRESSURE) mean= -2.95294169356676E-02
DEBUG_STATS_RL:    cg2d_x (SOLVE_FOR_PRESSURE) S.D.=  7.40273720372922E-01
DEBUG_STATS_RL:          Uvel (THERMODYNAMICS)  min= -3.64296443204224E-02
DEBUG_STATS_RL:          Uvel (THERMODYNAMICS)  max=  8.91662112566489E-02
DEBUG_STATS_RL:          Uvel (THERMODYNAMICS) mean=  5.18186102505262E-03
DEBUG_STATS_RL:          Uvel (THERMODYNAMICS) S.D.=  1.36791834404111E-02
DEBUG_STATS_RL:          Vvel (THERMODYNAMICS)  min= -8.48427067731397E-02
DEBUG_STATS_RL:          Vvel (THERMODYNAMICS)  max=  7.15709637633448E-02
DEBUG_STATS_RL:          Vvel (THERMODYNAMICS) mean= -6.25663991250223E-04
DEBUG_STATS_RL:          Vvel (THERMODYNAMICS) S.D.=  1.65568599029307E-02
DEBUG_STATS_RL:          Wvel (THERMODYNAMICS)  min= -2.02998023749463E-04
DEBUG_STATS_RL:          Wvel (THERMODYNAMICS)  max=  3.07634744219620E-04
DEBUG_STATS_RL:          Wvel (THERMODYNAMICS) mean= -2.14485636605179E-07
DEBUG_STATS_RL:          Wvel (THERMODYNAMICS) S.D.=  2.56514188295233E-05
DEBUG_STATS_RL:         Theta (THERMODYNAMICS)  min= -1.95891909892377E+00
DEBUG_STATS_RL:         Theta (THERMODYNAMICS)  max=  1.32575107273067E+01
DEBUG_STATS_RL:         Theta (THERMODYNAMICS) mean=  2.41560973729717E+00
DEBUG_STATS_RL:         Theta (THERMODYNAMICS) S.D.=  2.57506629522921E+00
DEBUG_STATS_RL:          Salt (THERMODYNAMICS)  min=  2.76241835718781E+01
DEBUG_STATS_RL:          Salt (THERMODYNAMICS)  max=  3.54512322319690E+01
DEBUG_STATS_RL:          Salt (THERMODYNAMICS) mean=  3.39367610972827E+01
DEBUG_STATS_RL:          Salt (THERMODYNAMICS) S.D.=  1.15400523729775E+00
DEBUG_STATS_RL:         GtNm1 (THERMODYNAMICS)  min=  0.00000000000000E+00
DEBUG_STATS_RL:         GtNm1 (THERMODYNAMICS)  max=  0.00000000000000E+00
DEBUG_STATS_RL:         GtNm1 (THERMODYNAMICS) mean=  0.00000000000000E+00
DEBUG_STATS_RL:         GtNm1 (THERMODYNAMICS) S.D.=  0.00000000000000E+00
DEBUG_STATS_RL:         GsNm1 (THERMODYNAMICS)  min=  0.00000000000000E+00
DEBUG_STATS_RL:         GsNm1 (THERMODYNAMICS)  max=  0.00000000000000E+00
DEBUG_STATS_RL:         GsNm1 (THERMODYNAMICS) mean=  0.00000000000000E+00
DEBUG_STATS_RL:         GsNm1 (THERMODYNAMICS) S.D.=  0.00000000000000E+00
(PID.TID 0000.0001)  MDS_READ_FIELD: opening global file: xx_atemp.effective.0000000001.data
(PID.TID 0000.0001) EXF_SET_FLD: processing field "climsss",  file: SSS_monthly.labsea1979
(PID.TID 0000.0001) EXF_SET_FLD:   myIter, count0, count1:         5      1      2
(PID.TID 0000.0001) EXF_SET_FLD:   first, changed, fac:   F   F    0.49316939890710387
(PID.TID 0000.0001) EXF_SET_FLD: processing field "uwind",  file: u10m.labsea1979
(PID.TID 0000.0001) EXF_SET_FLD:   myIter, count0, count1:         5      1      2
(PID.TID 0000.0001) EXF_SET_FLD:   first, changed, fac:   F   F    0.49316939890710387
(PID.TID 0000.0001) EXF_SET_FLD: processing field "vwind",  file: v10m.labsea1979
(PID.TID 0000.0001) EXF_SET_FLD:   myIter, count0, count1:         5      1      2
(PID.TID 0000.0001) EXF_SET_FLD:   first, changed, fac:   F   F    0.49316939890710387
(PID.TID 0000.0001) EXF_SET_FLD: processing field "atemp",  file: tair.labsea1979
(PID.TID 0000.0001) EXF_SET_FLD:   myIter, count0, count1:         5      1      2
(PID.TID 0000.0001) EXF_SET_FLD:   first, changed, fac:   F   F    0.49316939890710387
(PID.TID 0000.0001) EXF_SET_FLD: processing field "aqh",  file: qa.labsea1979
(PID.TID 0000.0001) EXF_SET_FLD:   myIter, count0, count1:         5      1      2
(PID.TID 0000.0001) EXF_SET_FLD:   first, changed, fac:   F   F    0.49316939890710387
(PID.TID 0000.0001) EXF_SET_FLD: processing field "precip",  file: prate.labsea1979
(PID.TID 0000.0001) EXF_SET_FLD:   myIter, count0, count1:         5      1      2
(PID.TID 0000.0001) EXF_SET_FLD:   first, changed, fac:   F   F    0.49316939890710387
(PID.TID 0000.0001) EXF_SET_FLD: processing field "swdown",  file: fsh.labsea1979
(PID.TID 0000.0001) EXF_SET_FLD:   myIter, count0, count1:         5      1      2
(PID.TID 0000.0001) EXF_SET_FLD:   first, changed, fac:   F   F    0.49316939890710387
(PID.TID 0000.0001) EXF_SET_FLD: processing field "lwdown",  file: flo.labsea1979
(PID.TID 0000.0001) EXF_SET_FLD:   myIter, count0, count1:         5      1      2
(PID.TID 0000.0001) EXF_SET_FLD:   first, changed, fac:   F   F    0.49316939890710387
DEBUG_STATS_RL: Uice pre  iter (SEAICE_LSR  1)  min= -9.02121933428159E-03
DEBUG_STATS_RL: Uice pre  iter (SEAICE_LSR  1)  max=  2.19445684647109E-01
DEBUG_STATS_RL: Uice pre  iter (SEAICE_LSR  1) mean=  6.96639305502532E-02
DEBUG_STATS_RL: Uice pre  iter (SEAICE_LSR  1) S.D.=  7.25590715280224E-02
DEBUG_STATS_RL: Vice pre  iter (SEAICE_LSR  1)  min= -1.73112057819563E-01
DEBUG_STATS_RL: Vice pre  iter (SEAICE_LSR  1)  max=  1.05174802576008E-01
DEBUG_STATS_RL: Vice pre  iter (SEAICE_LSR  1) mean= -3.44957645455127E-02
DEBUG_STATS_RL: Vice pre  iter (SEAICE_LSR  1) S.D.=  5.17027322842165E-02
DEBUG_STATS_RL: Uice pre  iter (SEAICE_LSR  2)  min= -9.93295031152210E-03
DEBUG_STATS_RL: Uice pre  iter (SEAICE_LSR  2)  max=  2.37649472779152E-01
DEBUG_STATS_RL: Uice pre  iter (SEAICE_LSR  2) mean=  7.08960993522900E-02
DEBUG_STATS_RL: Uice pre  iter (SEAICE_LSR  2) S.D.=  7.51814019583860E-02
DEBUG_STATS_RL: Vice pre  iter (SEAICE_LSR  2)  min= -1.73458139241626E-01
DEBUG_STATS_RL: Vice pre  iter (SEAICE_LSR  2)  max=  1.02503634704982E-01
DEBUG_STATS_RL: Vice pre  iter (SEAICE_LSR  2) mean= -3.89801386768760E-02
DEBUG_STATS_RL: Vice pre  iter (SEAICE_LSR  2) S.D.=  5.44920749395038E-02
DEBUG_STATS_RL:                EtaN (DYNAMICS)  min= -1.29709672821213E-01
DEBUG_STATS_RL:                EtaN (DYNAMICS)  max=  3.25626876398477E-01
DEBUG_STATS_RL:                EtaN (DYNAMICS) mean= -3.00841690122536E-03
DEBUG_STATS_RL:                EtaN (DYNAMICS) S.D.=  7.54180814594036E-02
DEBUG_STATS_RL:                Uvel (DYNAMICS)  min= -3.64296443204224E-02
DEBUG_STATS_RL:                Uvel (DYNAMICS)  max=  8.91662112566489E-02
DEBUG_STATS_RL:                Uvel (DYNAMICS) mean=  5.18186102505262E-03
DEBUG_STATS_RL:                Uvel (DYNAMICS) S.D.=  1.36791834404111E-02
DEBUG_STATS_RL:                Vvel (DYNAMICS)  min= -8.48427067731397E-02
DEBUG_STATS_RL:                Vvel (DYNAMICS)  max=  7.15709637633448E-02
DEBUG_STATS_RL:                Vvel (DYNAMICS) mean= -6.25663991250223E-04
DEBUG_STATS_RL:                Vvel (DYNAMICS) S.D.=  1.65568599029307E-02
DEBUG_STATS_RL:                Wvel (DYNAMICS)  min= -2.02998023749463E-04
DEBUG_STATS_RL:                Wvel (DYNAMICS)  max=  3.07634744219620E-04
DEBUG_STATS_RL:                Wvel (DYNAMICS) mean= -2.14485636605179E-07
DEBUG_STATS_RL:                Wvel (DYNAMICS) S.D.=  2.56514188295233E-05
DEBUG_STATS_RL:               Theta (DYNAMICS)  min= -1.95891909892377E+00
DEBUG_STATS_RL:               Theta (DYNAMICS)  max=  1.32575107273067E+01
DEBUG_STATS_RL:               Theta (DYNAMICS) mean=  2.41560973729717E+00
DEBUG_STATS_RL:               Theta (DYNAMICS) S.D.=  2.57506629522921E+00
DEBUG_STATS_RL:                Salt (DYNAMICS)  min=  2.76241835718781E+01
DEBUG_STATS_RL:                Salt (DYNAMICS)  max=  3.54512322319690E+01
DEBUG_STATS_RL:                Salt (DYNAMICS) mean=  3.39367610972827E+01
DEBUG_STATS_RL:                Salt (DYNAMICS) S.D.=  1.15400523729775E+00
DEBUG_STATS_RL:                  Gu (DYNAMICS)  min= -3.40661284878781E-02
DEBUG_STATS_RL:                  Gu (DYNAMICS)  max=  1.09592409505601E-01
DEBUG_STATS_RL:                  Gu (DYNAMICS) mean=  3.43340148231612E-03
DEBUG_STATS_RL:                  Gu (DYNAMICS) S.D.=  1.52106643070904E-02
DEBUG_STATS_RL:                  Gv (DYNAMICS)  min= -1.19743996000496E-01
DEBUG_STATS_RL:                  Gv (DYNAMICS)  max=  5.31755908727337E-02
DEBUG_STATS_RL:                  Gv (DYNAMICS) mean= -6.43607759844673E-03
DEBUG_STATS_RL:                  Gv (DYNAMICS) S.D.=  1.74595586593132E-02
DEBUG_STATS_RL:               GuNm1 (DYNAMICS)  min= -2.94347299884301E-07
DEBUG_STATS_RL:               GuNm1 (DYNAMICS)  max=  1.78770581560375E-07
DEBUG_STATS_RL:               GuNm1 (DYNAMICS) mean= -3.06311171945198E-09
DEBUG_STATS_RL:               GuNm1 (DYNAMICS) S.D.=  4.19614199163276E-08
DEBUG_STATS_RL:               GvNm1 (DYNAMICS)  min= -1.82273635415880E-07
DEBUG_STATS_RL:               GvNm1 (DYNAMICS)  max=  1.24273330978528E-07
DEBUG_STATS_RL:               GvNm1 (DYNAMICS) mean= -1.05360009952046E-09
DEBUG_STATS_RL:               GvNm1 (DYNAMICS) S.D.=  3.58773704868012E-08
DEBUG_STATS_RL:               GtNm1 (DYNAMICS)  min=  0.00000000000000E+00
DEBUG_STATS_RL:               GtNm1 (DYNAMICS)  max=  0.00000000000000E+00
DEBUG_STATS_RL:               GtNm1 (DYNAMICS) mean=  0.00000000000000E+00
DEBUG_STATS_RL:               GtNm1 (DYNAMICS) S.D.=  0.00000000000000E+00
DEBUG_STATS_RL:               GsNm1 (DYNAMICS)  min=  0.00000000000000E+00
DEBUG_STATS_RL:               GsNm1 (DYNAMICS)  max=  0.00000000000000E+00
DEBUG_STATS_RL:               GsNm1 (DYNAMICS) mean=  0.00000000000000E+00
DEBUG_STATS_RL:               GsNm1 (DYNAMICS) S.D.=  0.00000000000000E+00
DEBUG_STATS_RL:    cg2d_b (SOLVE_FOR_PRESSURE)  min= -7.45833771571459E+03
DEBUG_STATS_RL:    cg2d_b (SOLVE_FOR_PRESSURE)  max=  2.17494903027769E+03
DEBUG_STATS_RL:    cg2d_b (SOLVE_FOR_PRESSURE) mean=  4.18935997004155E-13
DEBUG_STATS_RL:    cg2d_b (SOLVE_FOR_PRESSURE) S.D.=  9.06377010650268E+02
 cg2d: Sum(rhs),rhsMax =   8.29197821516914E-15  1.20041496847834E+00
DEBUG_STATS_RL:    cg2d_x (SOLVE_FOR_PRESSURE)  min= -1.23196163368130E+00
DEBUG_STATS_RL:    cg2d_x (SOLVE_FOR_PRESSURE)  max=  3.23727429689848E+00
DEBUG_STATS_RL:    cg2d_x (SOLVE_FOR_PRESSURE) mean= -3.45194761148230E-02
DEBUG_STATS_RL:    cg2d_x (SOLVE_FOR_PRESSURE) S.D.=  7.10912240392561E-01
DEBUG_STATS_RL:          Uvel (THERMODYNAMICS)  min= -3.59096386964102E-02
DEBUG_STATS_RL:          Uvel (THERMODYNAMICS)  max=  1.01288605318195E-01
DEBUG_STATS_RL:          Uvel (THERMODYNAMICS) mean=  5.06442107691443E-03
DEBUG_STATS_RL:          Uvel (THERMODYNAMICS) S.D.=  1.40087544095653E-02
DEBUG_STATS_RL:          Vvel (THERMODYNAMICS)  min= -1.10756263988798E-01
DEBUG_STATS_RL:          Vvel (THERMODYNAMICS)  max=  7.07208418107748E-02
DEBUG_STATS_RL:          Vvel (THERMODYNAMICS) mean= -2.17557054828444E-03
DEBUG_STATS_RL:          Vvel (THERMODYNAMICS) S.D.=  1.80912833066385E-02
DEBUG_STATS_RL:          Wvel (THERMODYNAMICS)  min= -2.43811460414301E-04
DEBUG_STATS_RL:          Wvel (THERMODYNAMICS)  max=  3.28816353261790E-04
DEBUG_STATS_RL:          Wvel (THERMODYNAMICS) mean= -1.37923543342930E-07
DEBUG_STATS_RL:          Wvel (THERMODYNAMICS) S.D.=  2.75149300864468E-05
DEBUG_STATS_RL:         Theta (THERMODYNAMICS)  min= -1.96015217723737E+00
DEBUG_STATS_RL:         Theta (THERMODYNAMICS)  max=  1.32512671183370E+01
DEBUG_STATS_RL:         Theta (THERMODYNAMICS) mean=  2.41531606071968E+00
DEBUG_STATS_RL:         Theta (THERMODYNAMICS) S.D.=  2.57483151675911E+00
DEBUG_STATS_RL:          Salt (THERMODYNAMICS)  min=  2.76290307531745E+01
DEBUG_STATS_RL:          Salt (THERMODYNAMICS)  max=  3.54512307060718E+01
DEBUG_STATS_RL:          Salt (THERMODYNAMICS) mean=  3.39367446276238E+01
DEBUG_STATS_RL:          Salt (THERMODYNAMICS) S.D.=  1.15382313156805E+00
DEBUG_STATS_RL:         GtNm1 (THERMODYNAMICS)  min=  0.00000000000000E+00
DEBUG_STATS_RL:         GtNm1 (THERMODYNAMICS)  max=  0.00000000000000E+00
DEBUG_STATS_RL:         GtNm1 (THERMODYNAMICS) mean=  0.00000000000000E+00
DEBUG_STATS_RL:         GtNm1 (THERMODYNAMICS) S.D.=  0.00000000000000E+00
DEBUG_STATS_RL:         GsNm1 (THERMODYNAMICS)  min=  0.00000000000000E+00
DEBUG_STATS_RL:         GsNm1 (THERMODYNAMICS)  max=  0.00000000000000E+00
DEBUG_STATS_RL:         GsNm1 (THERMODYNAMICS) mean=  0.00000000000000E+00
DEBUG_STATS_RL:         GsNm1 (THERMODYNAMICS) S.D.=  0.00000000000000E+00
(PID.TID 0000.0001) ADWRITE: tid,vid, irec, length, prec(x2)=    41     1     2      672  8 64 fname=tapelev2_1_the_main_loop_etan
(PID.TID 0000.0001) ADWRITE:  tapeFileCounter =     1
(PID.TID 0000.0001) ADWRITE: tid,vid, irec, length, prec(x2)=    41     2     2      672  8 64 fname=tapelev2_2_the_main_loop_taux0
(PID.TID 0000.0001) ADWRITE:  tapeFileCounter =     2
(PID.TID 0000.0001) ADWRITE: tid,vid, irec, length, prec(x2)=    41     3     2      672  8 64 fname=tapelev2_3_the_main_loop_taux1
(PID.TID 0000.0001) ADWRITE:  tapeFileCounter =     3
(PID.TID 0000.0001) ADWRITE: tid,vid, irec, length, prec(x2)=    41     4     2      672  8 64 fname=tapelev2_4_the_main_loop_tauy0
(PID.TID 0000.0001) ADWRITE:  tapeFileCounter =     4
(PID.TID 0000.0001) ADWRITE: tid,vid, irec, length, prec(x2)=    41     5     2      672  8 64 fname=tapelev2_5_the_main_loop_tauy1
(PID.TID 0000.0001) ADWRITE:  tapeFileCounter =     5
(PID.TID 0000.0001) ADWRITE: tid,vid, irec, length, prec(x2)=    41     6     2      672  8 64 fname=tapelev2_6_the_main_loop_qnet0
(PID.TID 0000.0001) ADWRITE:  tapeFileCounter =     6
(PID.TID 0000.0001) ADWRITE: tid,vid, irec, length, prec(x2)=    41     7     2      672  8 64 fname=tapelev2_7_the_main_loop_qnet1
(PID.TID 0000.0001) ADWRITE:  tapeFileCounter =     7
(PID.TID 0000.0001) ADWRITE: tid,vid, irec, length, prec(x2)=    41     8     2      672  8 64 fname=tapelev2_8_the_main_loop_empmr0
(PID.TID 0000.0001) ADWRITE:  tapeFileCounter =     8
(PID.TID 0000.0001) ADWRITE: tid,vid, irec, length, prec(x2)=    41     9     2      672  8 64 fname=tapelev2_9_the_main_loop_empmr1
(PID.TID 0000.0001) ADWRITE:  tapeFileCounter =     9
(PID.TID 0000.0001) ADWRITE: tid,vid, irec, length, prec(x2)=    41    10     2      672  8 64 fname=tapelev2_10_the_main_loop_sst0
(PID.TID 0000.0001) ADWRITE:  tapeFileCounter =    10
(PID.TID 0000.0001) ADWRITE: tid,vid, irec, length, prec(x2)=    41    11     2      672  8 64 fname=tapelev2_11_the_main_loop_sst1
(PID.TID 0000.0001) ADWRITE:  tapeFileCounter =    11
(PID.TID 0000.0001) ADWRITE: tid,vid, irec, length, prec(x2)=    41    12     2      672  8 64 fname=tapelev2_12_the_main_loop_sss0
(PID.TID 0000.0001) ADWRITE:  tapeFileCounter =    12
(PID.TID 0000.0001) ADWRITE: tid,vid, irec, length, prec(x2)=    41    13     2      672  8 64 fname=tapelev2_13_the_main_loop_sss1
(PID.TID 0000.0001) ADWRITE:  tapeFileCounter =    13
(PID.TID 0000.0001) ADWRITE: tid,vid, irec, length, prec(x2)=    41    14     2      672  8 64 fname=tapelev2_14_the_main_loop_saltflux0
(PID.TID 0000.0001) ADWRITE:  tapeFileCounter =    14
(PID.TID 0000.0001) ADWRITE: tid,vid, irec, length, prec(x2)=    41    15     2      672  8 64 fname=tapelev2_15_the_main_loop_saltflux1
(PID.TID 0000.0001) ADWRITE:  tapeFileCounter =    15
(PID.TID 0000.0001) ADWRITE: tid,vid, irec, length, prec(x2)=    41    16     2      672  8 64 fname=tapelev2_16_the_main_loop_qsw0
(PID.TID 0000.0001) ADWRITE:  tapeFileCounter =    16
(PID.TID 0000.0001) ADWRITE: tid,vid, irec, length, prec(x2)=    41    17     2      672  8 64 fname=tapelev2_17_the_main_loop_qsw1
(PID.TID 0000.0001) ADWRITE:  tapeFileCounter =    17
(PID.TID 0000.0001) ADWRITE: tid,vid, irec, length, prec(x2)=    41    18     2      672  8 64 fname=tapelev2_18_the_main_loop_pload0
(PID.TID 0000.0001) ADWRITE:  tapeFileCounter =    18
(PID.TID 0000.0001) ADWRITE: tid,vid, irec, length, prec(x2)=    41    19     2      672  8 64 fname=tapelev2_19_the_main_loop_pload1
(PID.TID 0000.0001) ADWRITE:  tapeFileCounter =    19
(PID.TID 0000.0001) ADWRITE: tid,vid, irec, length, prec(x2)=    41    20     2      672  8 64 fname=tapelev2_20_the_main_loop_etah
(PID.TID 0000.0001) ADWRITE:  tapeFileCounter =    20
(PID.TID 0000.0001) ADWRITE: tid,vid, irec, length, prec(x2)=    41    21     2      672  8 64 fname=tapelev2_21_the_main_loop_detahdt
(PID.TID 0000.0001) ADWRITE:  tapeFileCounter =    21
(PID.TID 0000.0001) ADWRITE: tid,vid, irec, length, prec(x2)=    41    22     2      672  8 64 fname=tapelev2_22_the_main_loop_pmepr
(PID.TID 0000.0001) ADWRITE:  tapeFileCounter =    22
(PID.TID 0000.0001) ADWRITE: tid,vid, irec, length, prec(x2)=    41    23     2    15456  8 64 fname=tapelev2_23_the_main_loop_gtnm1
(PID.TID 0000.0001) ADWRITE:  tapeFileCounter =    23
(PID.TID 0000.0001) ADWRITE:  tapeFileCounter =    24
(PID.TID 0000.0001) ADWRITE:  tapeFileCounter =    25
(PID.TID 0000.0001) ADWRITE:  tapeFileCounter =    26
(PID.TID 0000.0001) ADWRITE:  tapeFileCounter =    27
(PID.TID 0000.0001) ADWRITE:  tapeFileCounter =    28
(PID.TID 0000.0001) ADWRITE:  tapeFileCounter =    29
(PID.TID 0000.0001) ADWRITE:  tapeFileCounter =    30
(PID.TID 0000.0001) ADWRITE:  tapeFileCounter =    31
(PID.TID 0000.0001) ADWRITE:  tapeFileCounter =    32
(PID.TID 0000.0001) ADWRITE:  tapeFileCounter =    33
(PID.TID 0000.0001) ADWRITE:  tapeFileCounter =    34
(PID.TID 0000.0001) ADWRITE:  tapeFileCounter =    35
(PID.TID 0000.0001) ADWRITE:  tapeFileCounter =    36
(PID.TID 0000.0001) ADWRITE:  tapeFileCounter =    37
(PID.TID 0000.0001) ADWRITE:  tapeFileCounter =    38
(PID.TID 0000.0001) ADWRITE:  tapeFileCounter =    39
(PID.TID 0000.0001) ADWRITE:  tapeFileCounter =    40
(PID.TID 0000.0001) ADWRITE:  tapeFileCounter =    41
(PID.TID 0000.0001) ADWRITE:  tapeFileCounter =    42
(PID.TID 0000.0001) ADWRITE:  tapeFileCounter =    43
(PID.TID 0000.0001) ADWRITE:  tapeFileCounter =    44
(PID.TID 0000.0001) ADWRITE:  tapeFileCounter =    45
(PID.TID 0000.0001) ADWRITE: tid,vid, irec, length, prec(x2)=    41    24     2    15456  8 64 fname=tapelev2_24_the_main_loop_gsnm1
(PID.TID 0000.0001) ADWRITE:  tapeFileCounter =    46
(PID.TID 0000.0001) ADWRITE:  tapeFileCounter =    47
(PID.TID 0000.0001) ADWRITE:  tapeFileCounter =    48
(PID.TID 0000.0001) ADWRITE:  tapeFileCounter =    49
(PID.TID 0000.0001) ADWRITE:  tapeFileCounter =    50
(PID.TID 0000.0001) ADWRITE:  tapeFileCounter =    51
(PID.TID 0000.0001) ADWRITE:  tapeFileCounter =    52
(PID.TID 0000.0001) ADWRITE:  tapeFileCounter =    53
(PID.TID 0000.0001) ADWRITE:  tapeFileCounter =    54
(PID.TID 0000.0001) ADWRITE:  tapeFileCounter =    55
(PID.TID 0000.0001) ADWRITE:  tapeFileCounter =    56
(PID.TID 0000.0001) ADWRITE:  tapeFileCounter =    57
(PID.TID 0000.0001) ADWRITE:  tapeFileCounter =    58
(PID.TID 0000.0001) ADWRITE:  tapeFileCounter =    59
(PID.TID 0000.0001) ADWRITE:  tapeFileCounter =    60
(PID.TID 0000.0001) ADWRITE:  tapeFileCounter =    61
(PID.TID 0000.0001) ADWRITE:  tapeFileCounter =    62
(PID.TID 0000.0001) ADWRITE:  tapeFileCounter =    63
(PID.TID 0000.0001) ADWRITE:  tapeFileCounter =    64
(PID.TID 0000.0001) ADWRITE:  tapeFileCounter =    65
(PID.TID 0000.0001) ADWRITE:  tapeFileCounter =    66
(PID.TID 0000.0001) ADWRITE:  tapeFileCounter =    67
(PID.TID 0000.0001) ADWRITE:  tapeFileCounter =    68
(PID.TID 0000.0001) ADWRITE: tid,vid, irec, length, prec(x2)=    41    25     2    15456  8 64 fname=tapelev2_25_the_main_loop_gunm1
(PID.TID 0000.0001) ADWRITE:  tapeFileCounter =    69
(PID.TID 0000.0001) ADWRITE:  tapeFileCounter =    70
(PID.TID 0000.0001) ADWRITE:  tapeFileCounter =    71
(PID.TID 0000.0001) ADWRITE:  tapeFileCounter =    72
(PID.TID 0000.0001) ADWRITE:  tapeFileCounter =    73
(PID.TID 0000.0001) ADWRITE:  tapeFileCounter =    74
(PID.TID 0000.0001) ADWRITE:  tapeFileCounter =    75
(PID.TID 0000.0001) ADWRITE:  tapeFileCounter =    76
(PID.TID 0000.0001) ADWRITE:  tapeFileCounter =    77
(PID.TID 0000.0001) ADWRITE:  tapeFileCounter =    78
(PID.TID 0000.0001) ADWRITE:  tapeFileCounter =    79
(PID.TID 0000.0001) ADWRITE:  tapeFileCounter =    80
(PID.TID 0000.0001) ADWRITE:  tapeFileCounter =    81
(PID.TID 0000.0001) ADWRITE:  tapeFileCounter =    82
(PID.TID 0000.0001) ADWRITE:  tapeFileCounter =    83
(PID.TID 0000.0001) ADWRITE:  tapeFileCounter =    84
(PID.TID 0000.0001) ADWRITE:  tapeFileCounter =    85
(PID.TID 0000.0001) ADWRITE:  tapeFileCounter =    86
(PID.TID 0000.0001) ADWRITE:  tapeFileCounter =    87
(PID.TID 0000.0001) ADWRITE:  tapeFileCounter =    88
(PID.TID 0000.0001) ADWRITE:  tapeFileCounter =    89
(PID.TID 0000.0001) ADWRITE:  tapeFileCounter =    90
(PID.TID 0000.0001) ADWRITE:  tapeFileCounter =    91
(PID.TID 0000.0001) ADWRITE: tid,vid, irec, length, prec(x2)=    41    26     2    15456  8 64 fname=tapelev2_26_the_main_loop_gvnm1
(PID.TID 0000.0001) ADWRITE:  tapeFileCounter =    92
(PID.TID 0000.0001) ADWRITE:  tapeFileCounter =    93
(PID.TID 0000.0001) ADWRITE:  tapeFileCounter =    94
(PID.TID 0000.0001) ADWRITE:  tapeFileCounter =    95
(PID.TID 0000.0001) ADWRITE:  tapeFileCounter =    96
(PID.TID 0000.0001) ADWRITE:  tapeFileCounter =    97
(PID.TID 0000.0001) ADWRITE:  tapeFileCounter =    98
(PID.TID 0000.0001) ADWRITE:  tapeFileCounter =    99
(PID.TID 0000.0001) ADWRITE:  tapeFileCounter =   100
(PID.TID 0000.0001) ADWRITE:  tapeFileCounter =   101
(PID.TID 0000.0001) ADWRITE:  tapeFileCounter =   102
(PID.TID 0000.0001) ADWRITE:  tapeFileCounter =   103
(PID.TID 0000.0001) ADWRITE:  tapeFileCounter =   104
(PID.TID 0000.0001) ADWRITE:  tapeFileCounter =   105
(PID.TID 0000.0001) ADWRITE:  tapeFileCounter =   106
(PID.TID 0000.0001) ADWRITE:  tapeFileCounter =   107
(PID.TID 0000.0001) ADWRITE:  tapeFileCounter =   108
(PID.TID 0000.0001) ADWRITE:  tapeFileCounter =   109
(PID.TID 0000.0001) ADWRITE:  tapeFileCounter =   110
(PID.TID 0000.0001) ADWRITE:  tapeFileCounter =   111
(PID.TID 0000.0001) ADWRITE:  tapeFileCounter =   112
(PID.TID 0000.0001) ADWRITE:  tapeFileCounter =   113
(PID.TID 0000.0001) ADWRITE:  tapeFileCounter =   114
(PID.TID 0000.0001) ADWRITE: tid,vid, irec, length, prec(x2)=    41    27     2    15456  8 64 fname=tapelev2_27_the_main_loop_theta
(PID.TID 0000.0001) ADWRITE:  tapeFileCounter =   115
(PID.TID 0000.0001) ADWRITE:  tapeFileCounter =   116
(PID.TID 0000.0001) ADWRITE:  tapeFileCounter =   117
(PID.TID 0000.0001) ADWRITE:  tapeFileCounter =   118
(PID.TID 0000.0001) ADWRITE:  tapeFileCounter =   119
(PID.TID 0000.0001) ADWRITE:  tapeFileCounter =   120
(PID.TID 0000.0001) ADWRITE:  tapeFileCounter =   121
(PID.TID 0000.0001) ADWRITE:  tapeFileCounter =   122
(PID.TID 0000.0001) ADWRITE:  tapeFileCounter =   123
(PID.TID 0000.0001) ADWRITE:  tapeFileCounter =   124
(PID.TID 0000.0001) ADWRITE:  tapeFileCounter =   125
(PID.TID 0000.0001) ADWRITE:  tapeFileCounter =   126
(PID.TID 0000.0001) ADWRITE:  tapeFileCounter =   127
(PID.TID 0000.0001) ADWRITE:  tapeFileCounter =   128
(PID.TID 0000.0001) ADWRITE:  tapeFileCounter =   129
(PID.TID 0000.0001) ADWRITE:  tapeFileCounter =   130
(PID.TID 0000.0001) ADWRITE:  tapeFileCounter =   131
(PID.TID 0000.0001) ADWRITE:  tapeFileCounter =   132
(PID.TID 0000.0001) ADWRITE:  tapeFileCounter =   133
(PID.TID 0000.0001) ADWRITE:  tapeFileCounter =   134
(PID.TID 0000.0001) ADWRITE:  tapeFileCounter =   135
(PID.TID 0000.0001) ADWRITE:  tapeFileCounter =   136
(PID.TID 0000.0001) ADWRITE:  tapeFileCounter =   137
(PID.TID 0000.0001) ADWRITE: tid,vid, irec, length, prec(x2)=    41    28     2    15456  8 64 fname=tapelev2_28_the_main_loop_salt
(PID.TID 0000.0001) ADWRITE:  tapeFileCounter =   138
(PID.TID 0000.0001) ADWRITE:  tapeFileCounter =   139
(PID.TID 0000.0001) ADWRITE:  tapeFileCounter =   140
(PID.TID 0000.0001) ADWRITE:  tapeFileCounter =   141
(PID.TID 0000.0001) ADWRITE:  tapeFileCounter =   142
(PID.TID 0000.0001) ADWRITE:  tapeFileCounter =   143
(PID.TID 0000.0001) ADWRITE:  tapeFileCounter =   144
(PID.TID 0000.0001) ADWRITE:  tapeFileCounter =   145
(PID.TID 0000.0001) ADWRITE:  tapeFileCounter =   146
(PID.TID 0000.0001) ADWRITE:  tapeFileCounter =   147
(PID.TID 0000.0001) ADWRITE:  tapeFileCounter =   148
(PID.TID 0000.0001) ADWRITE:  tapeFileCounter =   149
(PID.TID 0000.0001) ADWRITE:  tapeFileCounter =   150
(PID.TID 0000.0001) ADWRITE:  tapeFileCounter =   151
(PID.TID 0000.0001) ADWRITE:  tapeFileCounter =   152
(PID.TID 0000.0001) ADWRITE:  tapeFileCounter =   153
(PID.TID 0000.0001) ADWRITE:  tapeFileCounter =   154
(PID.TID 0000.0001) ADWRITE:  tapeFileCounter =   155
(PID.TID 0000.0001) ADWRITE:  tapeFileCounter =   156
(PID.TID 0000.0001) ADWRITE:  tapeFileCounter =   157
(PID.TID 0000.0001) ADWRITE:  tapeFileCounter =   158
(PID.TID 0000.0001) ADWRITE:  tapeFileCounter =   159
(PID.TID 0000.0001) ADWRITE:  tapeFileCounter =   160
(PID.TID 0000.0001) ADWRITE: tid,vid, irec, length, prec(x2)=    41    29     2    15456  8 64 fname=tapelev2_29_the_main_loop_uvel
(PID.TID 0000.0001) ADWRITE:  tapeFileCounter =   161
(PID.TID 0000.0001) ADWRITE:  tapeFileCounter =   162
(PID.TID 0000.0001) ADWRITE:  tapeFileCounter =   163
(PID.TID 0000.0001) ADWRITE:  tapeFileCounter =   164
(PID.TID 0000.0001) ADWRITE:  tapeFileCounter =   165
(PID.TID 0000.0001) ADWRITE:  tapeFileCounter =   166
(PID.TID 0000.0001) ADWRITE:  tapeFileCounter =   167
(PID.TID 0000.0001) ADWRITE:  tapeFileCounter =   168
(PID.TID 0000.0001) ADWRITE:  tapeFileCounter =   169
(PID.TID 0000.0001) ADWRITE:  tapeFileCounter =   170
(PID.TID 0000.0001) ADWRITE:  tapeFileCounter =   171
(PID.TID 0000.0001) ADWRITE:  tapeFileCounter =   172
(PID.TID 0000.0001) ADWRITE:  tapeFileCounter =   173
(PID.TID 0000.0001) ADWRITE:  tapeFileCounter =   174
(PID.TID 0000.0001) ADWRITE:  tapeFileCounter =   175
(PID.TID 0000.0001) ADWRITE:  tapeFileCounter =   176
(PID.TID 0000.0001) ADWRITE:  tapeFileCounter =   177
(PID.TID 0000.0001) ADWRITE:  tapeFileCounter =   178
(PID.TID 0000.0001) ADWRITE:  tapeFileCounter =   179
(PID.TID 0000.0001) ADWRITE:  tapeFileCounter =   180
(PID.TID 0000.0001) ADWRITE:  tapeFileCounter =   181
(PID.TID 0000.0001) ADWRITE:  tapeFileCounter =   182
(PID.TID 0000.0001) ADWRITE:  tapeFileCounter =   183
(PID.TID 0000.0001) ADWRITE: tid,vid, irec, length, prec(x2)=    41    30     2    15456  8 64 fname=tapelev2_30_the_main_loop_vvel
(PID.TID 0000.0001) ADWRITE:  tapeFileCounter =   184
(PID.TID 0000.0001) ADWRITE:  tapeFileCounter =   185
(PID.TID 0000.0001) ADWRITE:  tapeFileCounter =   186
(PID.TID 0000.0001) ADWRITE:  tapeFileCounter =   187
(PID.TID 0000.0001) ADWRITE:  tapeFileCounter =   188
(PID.TID 0000.0001) ADWRITE:  tapeFileCounter =   189
(PID.TID 0000.0001) ADWRITE:  tapeFileCounter =   190
(PID.TID 0000.0001) ADWRITE:  tapeFileCounter =   191
(PID.TID 0000.0001) ADWRITE:  tapeFileCounter =   192
(PID.TID 0000.0001) ADWRITE:  tapeFileCounter =   193
(PID.TID 0000.0001) ADWRITE:  tapeFileCounter =   194
(PID.TID 0000.0001) ADWRITE:  tapeFileCounter =   195
(PID.TID 0000.0001) ADWRITE:  tapeFileCounter =   196
(PID.TID 0000.0001) ADWRITE:  tapeFileCounter =   197
(PID.TID 0000.0001) ADWRITE:  tapeFileCounter =   198
(PID.TID 0000.0001) ADWRITE:  tapeFileCounter =   199
(PID.TID 0000.0001) ADWRITE:  tapeFileCounter =   200
(PID.TID 0000.0001) ADWRITE:  tapeFileCounter =   201
(PID.TID 0000.0001) ADWRITE:  tapeFileCounter =   202
(PID.TID 0000.0001) ADWRITE:  tapeFileCounter =   203
(PID.TID 0000.0001) ADWRITE:  tapeFileCounter =   204
(PID.TID 0000.0001) ADWRITE:  tapeFileCounter =   205
(PID.TID 0000.0001) ADWRITE:  tapeFileCounter =   206
(PID.TID 0000.0001) ADWRITE: tid,vid, irec, length, prec(x2)=    41    31     2    15456  8 64 fname=tapelev2_31_the_main_loop_wvel
(PID.TID 0000.0001) ADWRITE:  tapeFileCounter =   207
(PID.TID 0000.0001) ADWRITE:  tapeFileCounter =   208
(PID.TID 0000.0001) ADWRITE:  tapeFileCounter =   209
(PID.TID 0000.0001) ADWRITE:  tapeFileCounter =   210
(PID.TID 0000.0001) ADWRITE:  tapeFileCounter =   211
(PID.TID 0000.0001) ADWRITE:  tapeFileCounter =   212
(PID.TID 0000.0001) ADWRITE:  tapeFileCounter =   213
(PID.TID 0000.0001) ADWRITE:  tapeFileCounter =   214
(PID.TID 0000.0001) ADWRITE:  tapeFileCounter =   215
(PID.TID 0000.0001) ADWRITE:  tapeFileCounter =   216
(PID.TID 0000.0001) ADWRITE:  tapeFileCounter =   217
(PID.TID 0000.0001) ADWRITE:  tapeFileCounter =   218
(PID.TID 0000.0001) ADWRITE:  tapeFileCounter =   219
(PID.TID 0000.0001) ADWRITE:  tapeFileCounter =   220
(PID.TID 0000.0001) ADWRITE:  tapeFileCounter =   221
(PID.TID 0000.0001) ADWRITE:  tapeFileCounter =   222
(PID.TID 0000.0001) ADWRITE:  tapeFileCounter =   223
(PID.TID 0000.0001) ADWRITE:  tapeFileCounter =   224
(PID.TID 0000.0001) ADWRITE:  tapeFileCounter =   225
(PID.TID 0000.0001) ADWRITE:  tapeFileCounter =   226
(PID.TID 0000.0001) ADWRITE:  tapeFileCounter =   227
(PID.TID 0000.0001) ADWRITE:  tapeFileCounter =   228
(PID.TID 0000.0001) ADWRITE:  tapeFileCounter =   229
(PID.TID 0000.0001) ADWRITE: tid,vid, irec, length, prec(x2)=    41    32     2    15456  8 64 fname=tapelev2_32_the_main_loop_totphihyd
(PID.TID 0000.0001) ADWRITE:  tapeFileCounter =   230
(PID.TID 0000.0001) ADWRITE:  tapeFileCounter =   231
(PID.TID 0000.0001) ADWRITE:  tapeFileCounter =   232
(PID.TID 0000.0001) ADWRITE:  tapeFileCounter =   233
(PID.TID 0000.0001) ADWRITE:  tapeFileCounter =   234
(PID.TID 0000.0001) ADWRITE:  tapeFileCounter =   235
(PID.TID 0000.0001) ADWRITE:  tapeFileCounter =   236
(PID.TID 0000.0001) ADWRITE:  tapeFileCounter =   237
(PID.TID 0000.0001) ADWRITE:  tapeFileCounter =   238
(PID.TID 0000.0001) ADWRITE:  tapeFileCounter =   239
(PID.TID 0000.0001) ADWRITE:  tapeFileCounter =   240
(PID.TID 0000.0001) ADWRITE:  tapeFileCounter =   241
(PID.TID 0000.0001) ADWRITE:  tapeFileCounter =   242
(PID.TID 0000.0001) ADWRITE:  tapeFileCounter =   243
(PID.TID 0000.0001) ADWRITE:  tapeFileCounter =   244
(PID.TID 0000.0001) ADWRITE:  tapeFileCounter =   245
(PID.TID 0000.0001) ADWRITE:  tapeFileCounter =   246
(PID.TID 0000.0001) ADWRITE:  tapeFileCounter =   247
(PID.TID 0000.0001) ADWRITE:  tapeFileCounter =   248
(PID.TID 0000.0001) ADWRITE:  tapeFileCounter =   249
(PID.TID 0000.0001) ADWRITE:  tapeFileCounter =   250
(PID.TID 0000.0001) ADWRITE:  tapeFileCounter =   251
(PID.TID 0000.0001) ADWRITE:  tapeFileCounter =   252
(PID.TID 0000.0001) ADWRITE: tid,vid, irec, length, prec(x2)=    41    35     2    15456  8 64 fname=tapelev2_35_the_main_loop_uveld
(PID.TID 0000.0001) ADWRITE:  tapeFileCounter =   253
(PID.TID 0000.0001) ADWRITE:  tapeFileCounter =   254
(PID.TID 0000.0001) ADWRITE:  tapeFileCounter =   255
(PID.TID 0000.0001) ADWRITE:  tapeFileCounter =   256
(PID.TID 0000.0001) ADWRITE:  tapeFileCounter =   257
(PID.TID 0000.0001) ADWRITE:  tapeFileCounter =   258
(PID.TID 0000.0001) ADWRITE:  tapeFileCounter =   259
(PID.TID 0000.0001) ADWRITE:  tapeFileCounter =   260
(PID.TID 0000.0001) ADWRITE:  tapeFileCounter =   261
(PID.TID 0000.0001) ADWRITE:  tapeFileCounter =   262
(PID.TID 0000.0001) ADWRITE:  tapeFileCounter =   263
(PID.TID 0000.0001) ADWRITE:  tapeFileCounter =   264
(PID.TID 0000.0001) ADWRITE:  tapeFileCounter =   265
(PID.TID 0000.0001) ADWRITE:  tapeFileCounter =   266
(PID.TID 0000.0001) ADWRITE:  tapeFileCounter =   267
(PID.TID 0000.0001) ADWRITE:  tapeFileCounter =   268
(PID.TID 0000.0001) ADWRITE:  tapeFileCounter =   269
(PID.TID 0000.0001) ADWRITE:  tapeFileCounter =   270
(PID.TID 0000.0001) ADWRITE:  tapeFileCounter =   271
(PID.TID 0000.0001) ADWRITE:  tapeFileCounter =   272
(PID.TID 0000.0001) ADWRITE:  tapeFileCounter =   273
(PID.TID 0000.0001) ADWRITE:  tapeFileCounter =   274
(PID.TID 0000.0001) ADWRITE:  tapeFileCounter =   275
(PID.TID 0000.0001) ADWRITE: tid,vid, irec, length, prec(x2)=    41    36     2    15456  8 64 fname=tapelev2_36_the_main_loop_vveld
(PID.TID 0000.0001) ADWRITE:  tapeFileCounter =   276
(PID.TID 0000.0001) ADWRITE:  tapeFileCounter =   277
(PID.TID 0000.0001) ADWRITE:  tapeFileCounter =   278
(PID.TID 0000.0001) ADWRITE:  tapeFileCounter =   279
(PID.TID 0000.0001) ADWRITE:  tapeFileCounter =   280
(PID.TID 0000.0001) ADWRITE:  tapeFileCounter =   281
(PID.TID 0000.0001) ADWRITE:  tapeFileCounter =   282
(PID.TID 0000.0001) ADWRITE:  tapeFileCounter =   283
(PID.TID 0000.0001) ADWRITE:  tapeFileCounter =   284
(PID.TID 0000.0001) ADWRITE:  tapeFileCounter =   285
(PID.TID 0000.0001) ADWRITE:  tapeFileCounter =   286
(PID.TID 0000.0001) ADWRITE:  tapeFileCounter =   287
(PID.TID 0000.0001) ADWRITE:  tapeFileCounter =   288
(PID.TID 0000.0001) ADWRITE:  tapeFileCounter =   289
(PID.TID 0000.0001) ADWRITE:  tapeFileCounter =   290
(PID.TID 0000.0001) ADWRITE:  tapeFileCounter =   291
(PID.TID 0000.0001) ADWRITE:  tapeFileCounter =   292
(PID.TID 0000.0001) ADWRITE:  tapeFileCounter =   293
(PID.TID 0000.0001) ADWRITE:  tapeFileCounter =   294
(PID.TID 0000.0001) ADWRITE:  tapeFileCounter =   295
(PID.TID 0000.0001) ADWRITE:  tapeFileCounter =   296
(PID.TID 0000.0001) ADWRITE:  tapeFileCounter =   297
(PID.TID 0000.0001) ADWRITE:  tapeFileCounter =   298
(PID.TID 0000.0001) ADWRITE: tid,vid, irec, length, prec(x2)=    41    37     2      672  8 64 fname=tapelev2_37_the_main_loop_etanm1
(PID.TID 0000.0001) ADWRITE:  tapeFileCounter =   299
(PID.TID 0000.0001) ADWRITE: tid,vid, irec, length, prec(x2)=    41    38     2    15456  8 64 fname=tapelev2_38_the_main_loop_unm1
(PID.TID 0000.0001) ADWRITE:  tapeFileCounter =   300
(PID.TID 0000.0001) ADWRITE:  tapeFileCounter =   301
(PID.TID 0000.0001) ADWRITE:  tapeFileCounter =   302
(PID.TID 0000.0001) ADWRITE:  tapeFileCounter =   303
(PID.TID 0000.0001) ADWRITE:  tapeFileCounter =   304
(PID.TID 0000.0001) ADWRITE:  tapeFileCounter =   305
(PID.TID 0000.0001) ADWRITE:  tapeFileCounter =   306
(PID.TID 0000.0001) ADWRITE:  tapeFileCounter =   307
(PID.TID 0000.0001) ADWRITE:  tapeFileCounter =   308
(PID.TID 0000.0001) ADWRITE:  tapeFileCounter =   309
(PID.TID 0000.0001) ADWRITE:  tapeFileCounter =   310
(PID.TID 0000.0001) ADWRITE:  tapeFileCounter =   311
(PID.TID 0000.0001) ADWRITE:  tapeFileCounter =   312
(PID.TID 0000.0001) ADWRITE:  tapeFileCounter =   313
(PID.TID 0000.0001) ADWRITE:  tapeFileCounter =   314
(PID.TID 0000.0001) ADWRITE:  tapeFileCounter =   315
(PID.TID 0000.0001) ADWRITE:  tapeFileCounter =   316
(PID.TID 0000.0001) ADWRITE:  tapeFileCounter =   317
(PID.TID 0000.0001) ADWRITE:  tapeFileCounter =   318
(PID.TID 0000.0001) ADWRITE:  tapeFileCounter =   319
(PID.TID 0000.0001) ADWRITE:  tapeFileCounter =   320
(PID.TID 0000.0001) ADWRITE:  tapeFileCounter =   321
(PID.TID 0000.0001) ADWRITE:  tapeFileCounter =   322
(PID.TID 0000.0001) ADWRITE: tid,vid, irec, length, prec(x2)=    41    39     2    15456  8 64 fname=tapelev2_39_the_main_loop_vnm1
(PID.TID 0000.0001) ADWRITE:  tapeFileCounter =   323
(PID.TID 0000.0001) ADWRITE:  tapeFileCounter =   324
(PID.TID 0000.0001) ADWRITE:  tapeFileCounter =   325
(PID.TID 0000.0001) ADWRITE:  tapeFileCounter =   326
(PID.TID 0000.0001) ADWRITE:  tapeFileCounter =   327
(PID.TID 0000.0001) ADWRITE:  tapeFileCounter =   328
(PID.TID 0000.0001) ADWRITE:  tapeFileCounter =   329
(PID.TID 0000.0001) ADWRITE:  tapeFileCounter =   330
(PID.TID 0000.0001) ADWRITE:  tapeFileCounter =   331
(PID.TID 0000.0001) ADWRITE:  tapeFileCounter =   332
(PID.TID 0000.0001) ADWRITE:  tapeFileCounter =   333
(PID.TID 0000.0001) ADWRITE:  tapeFileCounter =   334
(PID.TID 0000.0001) ADWRITE:  tapeFileCounter =   335
(PID.TID 0000.0001) ADWRITE:  tapeFileCounter =   336
(PID.TID 0000.0001) ADWRITE:  tapeFileCounter =   337
(PID.TID 0000.0001) ADWRITE:  tapeFileCounter =   338
(PID.TID 0000.0001) ADWRITE:  tapeFileCounter =   339
(PID.TID 0000.0001) ADWRITE:  tapeFileCounter =   340
(PID.TID 0000.0001) ADWRITE:  tapeFileCounter =   341
(PID.TID 0000.0001) ADWRITE:  tapeFileCounter =   342
(PID.TID 0000.0001) ADWRITE:  tapeFileCounter =   343
(PID.TID 0000.0001) ADWRITE:  tapeFileCounter =   344
(PID.TID 0000.0001) ADWRITE:  tapeFileCounter =   345
(PID.TID 0000.0001) ADWRITE: tid,vid, irec, length, prec(x2)=    41    40     2      672  8 64 fname=tapelev2_40_the_main_loop_areamask0
(PID.TID 0000.0001) ADWRITE:  tapeFileCounter =   346
(PID.TID 0000.0001) ADWRITE: tid,vid, irec, length, prec(x2)=    41    41     2      672  8 64 fname=tapelev2_41_the_main_loop_areamask1
(PID.TID 0000.0001) ADWRITE:  tapeFileCounter =   347
(PID.TID 0000.0001) ADWRITE: tid,vid, irec, length, prec(x2)=    41    42     2      672  8 64 fname=tapelev2_42_the_main_loop_hflux0
(PID.TID 0000.0001) ADWRITE:  tapeFileCounter =   348
(PID.TID 0000.0001) ADWRITE: tid,vid, irec, length, prec(x2)=    41    43     2      672  8 64 fname=tapelev2_43_the_main_loop_hflux1
(PID.TID 0000.0001) ADWRITE:  tapeFileCounter =   349
(PID.TID 0000.0001) ADWRITE: tid,vid, irec, length, prec(x2)=    41    44     2      672  8 64 fname=tapelev2_44_the_main_loop_sflux0
(PID.TID 0000.0001) ADWRITE:  tapeFileCounter =   350
(PID.TID 0000.0001) ADWRITE: tid,vid, irec, length, prec(x2)=    41    45     2      672  8 64 fname=tapelev2_45_the_main_loop_sflux1
(PID.TID 0000.0001) ADWRITE:  tapeFileCounter =   351
(PID.TID 0000.0001) ADWRITE: tid,vid, irec, length, prec(x2)=    41    46     2      672  8 64 fname=tapelev2_46_the_main_loop_ustress0
(PID.TID 0000.0001) ADWRITE:  tapeFileCounter =   352
(PID.TID 0000.0001) ADWRITE: tid,vid, irec, length, prec(x2)=    41    47     2      672  8 64 fname=tapelev2_47_the_main_loop_ustress1
(PID.TID 0000.0001) ADWRITE:  tapeFileCounter =   353
(PID.TID 0000.0001) ADWRITE: tid,vid, irec, length, prec(x2)=    41    48     2      672  8 64 fname=tapelev2_48_the_main_loop_vstress0
(PID.TID 0000.0001) ADWRITE:  tapeFileCounter =   354
(PID.TID 0000.0001) ADWRITE: tid,vid, irec, length, prec(x2)=    41    49     2      672  8 64 fname=tapelev2_49_the_main_loop_vstress1
(PID.TID 0000.0001) ADWRITE:  tapeFileCounter =   355
(PID.TID 0000.0001) ADWRITE: tid,vid, irec, length, prec(x2)=    41    50     2      672  8 64 fname=tapelev2_50_the_main_loop_wspeed0
(PID.TID 0000.0001) ADWRITE:  tapeFileCounter =   356
(PID.TID 0000.0001) ADWRITE: tid,vid, irec, length, prec(x2)=    41    51     2      672  8 64 fname=tapelev2_51_the_main_loop_wspeed1
(PID.TID 0000.0001) ADWRITE:  tapeFileCounter =   357
(PID.TID 0000.0001) ADWRITE: tid,vid, irec, length, prec(x2)=    41    54     2      672  8 64 fname=tapelev2_54_the_main_loop_runoff0
(PID.TID 0000.0001) ADWRITE:  tapeFileCounter =   358
(PID.TID 0000.0001) ADWRITE: tid,vid, irec, length, prec(x2)=    41    55     2      672  8 64 fname=tapelev2_55_the_main_loop_runoff1
(PID.TID 0000.0001) ADWRITE:  tapeFileCounter =   359
(PID.TID 0000.0001) ADWRITE: tid,vid, irec, length, prec(x2)=    41    56     2      672  8 64 fname=tapelev2_56_the_main_loop_apressure0
(PID.TID 0000.0001) ADWRITE:  tapeFileCounter =   360
(PID.TID 0000.0001) ADWRITE: tid,vid, irec, length, prec(x2)=    41    57     2      672  8 64 fname=tapelev2_57_the_main_loop_apressure1
(PID.TID 0000.0001) ADWRITE:  tapeFileCounter =   361
(PID.TID 0000.0001) ADWRITE: tid,vid, irec, length, prec(x2)=    41    58     2      672  8 64 fname=tapelev2_58_the_main_loop_siceload
(PID.TID 0000.0001) ADWRITE:  tapeFileCounter =   362
(PID.TID 0000.0001) ADWRITE: tid,vid, irec, length, prec(x2)=    41    59     2      672  8 64 fname=tapelev2_59_the_main_loop_climsss0
(PID.TID 0000.0001) ADWRITE:  tapeFileCounter =   363
(PID.TID 0000.0001) ADWRITE: tid,vid, irec, length, prec(x2)=    41    60     2      672  8 64 fname=tapelev2_60_the_main_loop_climsss1
(PID.TID 0000.0001) ADWRITE:  tapeFileCounter =   364
(PID.TID 0000.0001) ADWRITE: tid,vid, irec, length, prec(x2)=    41    61     2      672  8 64 fname=tapelev2_61_the_main_loop_climsst0
(PID.TID 0000.0001) ADWRITE:  tapeFileCounter =   365
(PID.TID 0000.0001) ADWRITE: tid,vid, irec, length, prec(x2)=    41    62     2      672  8 64 fname=tapelev2_62_the_main_loop_climsst1
(PID.TID 0000.0001) ADWRITE:  tapeFileCounter =   366
(PID.TID 0000.0001) ADWRITE: tid,vid, irec, length, prec(x2)=    41    63     2      672  8 64 fname=tapelev2_63_the_main_loop_saltflx0
(PID.TID 0000.0001) ADWRITE:  tapeFileCounter =   367
(PID.TID 0000.0001) ADWRITE: tid,vid, irec, length, prec(x2)=    41    64     2      672  8 64 fname=tapelev2_64_the_main_loop_saltflx1
(PID.TID 0000.0001) ADWRITE:  tapeFileCounter =   368
(PID.TID 0000.0001) ADWRITE: tid,vid, irec, length, prec(x2)=    41    65     2      672  8 64 fname=tapelev2_65_the_main_loop_aqh0
(PID.TID 0000.0001) ADWRITE:  tapeFileCounter =   369
(PID.TID 0000.0001) ADWRITE: tid,vid, irec, length, prec(x2)=    41    66     2      672  8 64 fname=tapelev2_66_the_main_loop_aqh1
(PID.TID 0000.0001) ADWRITE:  tapeFileCounter =   370
(PID.TID 0000.0001) ADWRITE: tid,vid, irec, length, prec(x2)=    41    67     2      672  8 64 fname=tapelev2_67_the_main_loop_atemp0
(PID.TID 0000.0001) ADWRITE:  tapeFileCounter =   371
(PID.TID 0000.0001) ADWRITE: tid,vid, irec, length, prec(x2)=    41    68     2      672  8 64 fname=tapelev2_68_the_main_loop_atemp1
(PID.TID 0000.0001) ADWRITE:  tapeFileCounter =   372
(PID.TID 0000.0001) ADWRITE: tid,vid, irec, length, prec(x2)=    41    69     2      672  8 64 fname=tapelev2_69_the_main_loop_precip0
(PID.TID 0000.0001) ADWRITE:  tapeFileCounter =   373
(PID.TID 0000.0001) ADWRITE: tid,vid, irec, length, prec(x2)=    41    70     2      672  8 64 fname=tapelev2_70_the_main_loop_precip1
(PID.TID 0000.0001) ADWRITE:  tapeFileCounter =   374
(PID.TID 0000.0001) ADWRITE: tid,vid, irec, length, prec(x2)=    41    73     2      672  8 64 fname=tapelev2_73_the_main_loop_snowprecip0
(PID.TID 0000.0001) ADWRITE:  tapeFileCounter =   375
(PID.TID 0000.0001) ADWRITE: tid,vid, irec, length, prec(x2)=    41    74     2      672  8 64 fname=tapelev2_74_the_main_loop_snowprecip1
(PID.TID 0000.0001) ADWRITE:  tapeFileCounter =   376
(PID.TID 0000.0001) ADWRITE: tid,vid, irec, length, prec(x2)=    41    75     2      672  8 64 fname=tapelev2_75_the_main_loop_swdown0
(PID.TID 0000.0001) ADWRITE:  tapeFileCounter =   377
(PID.TID 0000.0001) ADWRITE: tid,vid, irec, length, prec(x2)=    41    76     2      672  8 64 fname=tapelev2_76_the_main_loop_swdown1
(PID.TID 0000.0001) ADWRITE:  tapeFileCounter =   378
(PID.TID 0000.0001) ADWRITE: tid,vid, irec, length, prec(x2)=    41    77     2      672  8 64 fname=tapelev2_77_the_main_loop_lwdown0
(PID.TID 0000.0001) ADWRITE:  tapeFileCounter =   379
(PID.TID 0000.0001) ADWRITE: tid,vid, irec, length, prec(x2)=    41    78     2      672  8 64 fname=tapelev2_78_the_main_loop_lwdown1
(PID.TID 0000.0001) ADWRITE:  tapeFileCounter =   380
(PID.TID 0000.0001) ADWRITE: tid,vid, irec, length, prec(x2)=    41    79     2      672  8 64 fname=tapelev2_79_the_main_loop_uwind0
(PID.TID 0000.0001) ADWRITE:  tapeFileCounter =   381
(PID.TID 0000.0001) ADWRITE: tid,vid, irec, length, prec(x2)=    41    80     2      672  8 64 fname=tapelev2_80_the_main_loop_uwind1
(PID.TID 0000.0001) ADWRITE:  tapeFileCounter =   382
(PID.TID 0000.0001) ADWRITE: tid,vid, irec, length, prec(x2)=    41    81     2      672  8 64 fname=tapelev2_81_the_main_loop_vwind0
(PID.TID 0000.0001) ADWRITE:  tapeFileCounter =   383
(PID.TID 0000.0001) ADWRITE: tid,vid, irec, length, prec(x2)=    41    82     2      672  8 64 fname=tapelev2_82_the_main_loop_vwind1
(PID.TID 0000.0001) ADWRITE:  tapeFileCounter =   384
(PID.TID 0000.0001) ADWRITE: tid,vid, irec, length, prec(x2)=    41    83     2     6048  8 64 fname=tapelev2_83_the_main_loop_xx_gentim2d
(PID.TID 0000.0001) ADWRITE:  tapeFileCounter =   385
(PID.TID 0000.0001) ADWRITE:  tapeFileCounter =   386
(PID.TID 0000.0001) ADWRITE:  tapeFileCounter =   387
(PID.TID 0000.0001) ADWRITE:  tapeFileCounter =   388
(PID.TID 0000.0001) ADWRITE:  tapeFileCounter =   389
(PID.TID 0000.0001) ADWRITE:  tapeFileCounter =   390
(PID.TID 0000.0001) ADWRITE:  tapeFileCounter =   391
(PID.TID 0000.0001) ADWRITE:  tapeFileCounter =   392
(PID.TID 0000.0001) ADWRITE:  tapeFileCounter =   393
(PID.TID 0000.0001) ADWRITE: tid,vid, irec, length, prec(x2)=    41    84     2     6048  8 64 fname=tapelev2_84_the_main_loop_xx_gentim2d0
(PID.TID 0000.0001) ADWRITE:  tapeFileCounter =   394
(PID.TID 0000.0001) ADWRITE:  tapeFileCounter =   395
(PID.TID 0000.0001) ADWRITE:  tapeFileCounter =   396
(PID.TID 0000.0001) ADWRITE:  tapeFileCounter =   397
(PID.TID 0000.0001) ADWRITE:  tapeFileCounter =   398
(PID.TID 0000.0001) ADWRITE:  tapeFileCounter =   399
(PID.TID 0000.0001) ADWRITE:  tapeFileCounter =   400
(PID.TID 0000.0001) ADWRITE:  tapeFileCounter =   401
(PID.TID 0000.0001) ADWRITE:  tapeFileCounter =   402
(PID.TID 0000.0001) ADWRITE: tid,vid, irec, length, prec(x2)=    41    85     2     6048  8 64 fname=tapelev2_85_the_main_loop_xx_gentim2d1
(PID.TID 0000.0001) ADWRITE:  tapeFileCounter =   403
(PID.TID 0000.0001) ADWRITE:  tapeFileCounter =   404
(PID.TID 0000.0001) ADWRITE:  tapeFileCounter =   405
(PID.TID 0000.0001) ADWRITE:  tapeFileCounter =   406
(PID.TID 0000.0001) ADWRITE:  tapeFileCounter =   407
(PID.TID 0000.0001) ADWRITE:  tapeFileCounter =   408
(PID.TID 0000.0001) ADWRITE:  tapeFileCounter =   409
(PID.TID 0000.0001) ADWRITE:  tapeFileCounter =   410
(PID.TID 0000.0001) ADWRITE:  tapeFileCounter =   411
(PID.TID 0000.0001) ADWRITE: tid,vid, irec, length, prec(x2)=    41    87     2      672  8 64 fname=tapelev2_87_the_main_loop_phihydlow
(PID.TID 0000.0001) ADWRITE:  tapeFileCounter =   412
(PID.TID 0000.0001) ADWRITE: tid,vid, irec, length, prec(x2)=    41    88     2      672  8 64 fname=tapelev2_88_the_main_loop_area
(PID.TID 0000.0001) ADWRITE:  tapeFileCounter =   413
(PID.TID 0000.0001) ADWRITE: tid,vid, irec, length, prec(x2)=    41    89     2      672  8 64 fname=tapelev2_89_the_main_loop_heff
(PID.TID 0000.0001) ADWRITE:  tapeFileCounter =   414
(PID.TID 0000.0001) ADWRITE: tid,vid, irec, length, prec(x2)=    41    90     2      672  8 64 fname=tapelev2_90_the_main_loop_hsnow
(PID.TID 0000.0001) ADWRITE:  tapeFileCounter =   415
(PID.TID 0000.0001) ADWRITE: tid,vid, irec, length, prec(x2)=    41    92     2      672  8 64 fname=tapelev2_92_the_main_loop_uice
(PID.TID 0000.0001) ADWRITE:  tapeFileCounter =   416
(PID.TID 0000.0001) ADWRITE: tid,vid, irec, length, prec(x2)=    41    93     2      672  8 64 fname=tapelev2_93_the_main_loop_vice
(PID.TID 0000.0001) ADWRITE:  tapeFileCounter =   417
(PID.TID 0000.0001) ADWRITE: tid,vid, irec, length, prec(x2)=    41    96     2     4704  8 64 fname=tapelev2_96_the_main_loop_tices
(PID.TID 0000.0001) ADWRITE:  tapeFileCounter =   418
(PID.TID 0000.0001) ADWRITE:  tapeFileCounter =   419
(PID.TID 0000.0001) ADWRITE:  tapeFileCounter =   420
(PID.TID 0000.0001) ADWRITE:  tapeFileCounter =   421
(PID.TID 0000.0001) ADWRITE:  tapeFileCounter =   422
(PID.TID 0000.0001) ADWRITE:  tapeFileCounter =   423
(PID.TID 0000.0001) ADWRITE:  tapeFileCounter =   424
(PID.TID 0000.0001) ADWRITE: tid,vid, irec, length, prec(x2)=    41    97     2      672  8 64 fname=tapelev2_97_the_main_loop_dwatn
(PID.TID 0000.0001) ADWRITE:  tapeFileCounter =   425
(PID.TID 0000.0001) ADWRITE: tid,vid, irec, length, prec(x2)=    41    98     2      672  8 64 fname=tapelev2_98_the_main_loop_stressdivergencex
(PID.TID 0000.0001) ADWRITE:  tapeFileCounter =   426
(PID.TID 0000.0001) ADWRITE: tid,vid, irec, length, prec(x2)=    41    99     2      672  8 64 fname=tapelev2_99_the_main_loop_stressdivergencey
(PID.TID 0000.0001) ADWRITE:  tapeFileCounter =   427
(PID.TID 0000.0001) ADWRITE: tid,vid, irec, length, prec(x2)=    41   100     2      672  8 64 fname=tapelev2_100_the_main_loop_seaice_sigma1
(PID.TID 0000.0001) ADWRITE:  tapeFileCounter =   428
(PID.TID 0000.0001) ADWRITE: tid,vid, irec, length, prec(x2)=    41   101     2      672  8 64 fname=tapelev2_101_the_main_loop_seaice_sigma2
(PID.TID 0000.0001) ADWRITE:  tapeFileCounter =   429
(PID.TID 0000.0001) ADWRITE: tid,vid, irec, length, prec(x2)=    41   102     2      672  8 64 fname=tapelev2_102_the_main_loop_seaice_sigma12
(PID.TID 0000.0001) ADWRITE:  tapeFileCounter =   430
(PID.TID 0000.0001) ADWRITE: tid,vid, irec, length, prec(x2)=    41   103     2      672  8 64 fname=tapelev2_103_the_main_loop_hsalt
(PID.TID 0000.0001) ADWRITE:  tapeFileCounter =   431
(PID.TID 0000.0001) whio : write lev 2 rec   2
(PID.TID 0000.0001)  MDS_READ_FIELD: opening global file: xx_atemp.effective.0000000001.data
(PID.TID 0000.0001) EXF_SET_FLD: processing field "climsss",  file: SSS_monthly.labsea1979
(PID.TID 0000.0001) EXF_SET_FLD:   myIter, count0, count1:         6      1      2
(PID.TID 0000.0001) EXF_SET_FLD:   first, changed, fac:   F   F    0.49180327868852458
(PID.TID 0000.0001) EXF_SET_FLD: processing field "uwind",  file: u10m.labsea1979
(PID.TID 0000.0001) EXF_SET_FLD:   myIter, count0, count1:         6      1      2
(PID.TID 0000.0001) EXF_SET_FLD:   first, changed, fac:   F   F    0.49180327868852458
(PID.TID 0000.0001) EXF_SET_FLD: processing field "vwind",  file: v10m.labsea1979
(PID.TID 0000.0001) EXF_SET_FLD:   myIter, count0, count1:         6      1      2
(PID.TID 0000.0001) EXF_SET_FLD:   first, changed, fac:   F   F    0.49180327868852458
(PID.TID 0000.0001) EXF_SET_FLD: processing field "atemp",  file: tair.labsea1979
(PID.TID 0000.0001) EXF_SET_FLD:   myIter, count0, count1:         6      1      2
(PID.TID 0000.0001) EXF_SET_FLD:   first, changed, fac:   F   F    0.49180327868852458
(PID.TID 0000.0001) EXF_SET_FLD: processing field "aqh",  file: qa.labsea1979
(PID.TID 0000.0001) EXF_SET_FLD:   myIter, count0, count1:         6      1      2
(PID.TID 0000.0001) EXF_SET_FLD:   first, changed, fac:   F   F    0.49180327868852458
(PID.TID 0000.0001) EXF_SET_FLD: processing field "precip",  file: prate.labsea1979
(PID.TID 0000.0001) EXF_SET_FLD:   myIter, count0, count1:         6      1      2
(PID.TID 0000.0001) EXF_SET_FLD:   first, changed, fac:   F   F    0.49180327868852458
(PID.TID 0000.0001) EXF_SET_FLD: processing field "swdown",  file: fsh.labsea1979
(PID.TID 0000.0001) EXF_SET_FLD:   myIter, count0, count1:         6      1      2
(PID.TID 0000.0001) EXF_SET_FLD:   first, changed, fac:   F   F    0.49180327868852458
(PID.TID 0000.0001) EXF_SET_FLD: processing field "lwdown",  file: flo.labsea1979
(PID.TID 0000.0001) EXF_SET_FLD:   myIter, count0, count1:         6      1      2
(PID.TID 0000.0001) EXF_SET_FLD:   first, changed, fac:   F   F    0.49180327868852458
DEBUG_STATS_RL: Uice pre  iter (SEAICE_LSR  1)  min= -1.19106759196614E-02
DEBUG_STATS_RL: Uice pre  iter (SEAICE_LSR  1)  max=  2.40859973799500E-01
DEBUG_STATS_RL: Uice pre  iter (SEAICE_LSR  1) mean=  7.02597534860948E-02
DEBUG_STATS_RL: Uice pre  iter (SEAICE_LSR  1) S.D.=  7.57773428259753E-02
DEBUG_STATS_RL: Vice pre  iter (SEAICE_LSR  1)  min= -1.74132342678207E-01
DEBUG_STATS_RL: Vice pre  iter (SEAICE_LSR  1)  max=  9.66358613081399E-02
DEBUG_STATS_RL: Vice pre  iter (SEAICE_LSR  1) mean= -4.28491368242810E-02
DEBUG_STATS_RL: Vice pre  iter (SEAICE_LSR  1) S.D.=  5.63763392291550E-02
DEBUG_STATS_RL: Uice pre  iter (SEAICE_LSR  2)  min= -1.30564509125757E-02
DEBUG_STATS_RL: Uice pre  iter (SEAICE_LSR  2)  max=  2.47901039964918E-01
DEBUG_STATS_RL: Uice pre  iter (SEAICE_LSR  2) mean=  6.80717062410296E-02
DEBUG_STATS_RL: Uice pre  iter (SEAICE_LSR  2) S.D.=  7.48548542542582E-02
DEBUG_STATS_RL: Vice pre  iter (SEAICE_LSR  2)  min= -1.68314830999124E-01
DEBUG_STATS_RL: Vice pre  iter (SEAICE_LSR  2)  max=  8.87290074915900E-02
DEBUG_STATS_RL: Vice pre  iter (SEAICE_LSR  2) mean= -4.61137817409455E-02
DEBUG_STATS_RL: Vice pre  iter (SEAICE_LSR  2) S.D.=  5.74118961796309E-02
DEBUG_STATS_RL:                EtaN (DYNAMICS)  min= -1.25510578434462E-01
DEBUG_STATS_RL:                EtaN (DYNAMICS)  max=  3.29809109672203E-01
DEBUG_STATS_RL:                EtaN (DYNAMICS) mean= -3.51679735470302E-03
DEBUG_STATS_RL:                EtaN (DYNAMICS) S.D.=  7.24267737471536E-02
DEBUG_STATS_RL:                Uvel (DYNAMICS)  min= -3.59096386964102E-02
DEBUG_STATS_RL:                Uvel (DYNAMICS)  max=  1.01288605318195E-01
DEBUG_STATS_RL:                Uvel (DYNAMICS) mean=  5.06442107691443E-03
DEBUG_STATS_RL:                Uvel (DYNAMICS) S.D.=  1.40087544095653E-02
DEBUG_STATS_RL:                Vvel (DYNAMICS)  min= -1.10756263988798E-01
DEBUG_STATS_RL:                Vvel (DYNAMICS)  max=  7.07208418107748E-02
DEBUG_STATS_RL:                Vvel (DYNAMICS) mean= -2.17557054828444E-03
DEBUG_STATS_RL:                Vvel (DYNAMICS) S.D.=  1.80912833066385E-02
DEBUG_STATS_RL:                Wvel (DYNAMICS)  min= -2.43811460414301E-04
DEBUG_STATS_RL:                Wvel (DYNAMICS)  max=  3.28816353261790E-04
DEBUG_STATS_RL:                Wvel (DYNAMICS) mean= -1.37923543342930E-07
DEBUG_STATS_RL:                Wvel (DYNAMICS) S.D.=  2.75149300864468E-05
DEBUG_STATS_RL:               Theta (DYNAMICS)  min= -1.96015217723737E+00
DEBUG_STATS_RL:               Theta (DYNAMICS)  max=  1.32512671183370E+01
DEBUG_STATS_RL:               Theta (DYNAMICS) mean=  2.41531606071968E+00
DEBUG_STATS_RL:               Theta (DYNAMICS) S.D.=  2.57483151675911E+00
DEBUG_STATS_RL:                Salt (DYNAMICS)  min=  2.76290307531745E+01
DEBUG_STATS_RL:                Salt (DYNAMICS)  max=  3.54512307060718E+01
DEBUG_STATS_RL:                Salt (DYNAMICS) mean=  3.39367446276238E+01
DEBUG_STATS_RL:                Salt (DYNAMICS) S.D.=  1.15382313156805E+00
DEBUG_STATS_RL:                  Gu (DYNAMICS)  min= -4.45840116890899E-02
DEBUG_STATS_RL:                  Gu (DYNAMICS)  max=  1.13252404039500E-01
DEBUG_STATS_RL:                  Gu (DYNAMICS) mean=  3.02808241161229E-03
DEBUG_STATS_RL:                  Gu (DYNAMICS) S.D.=  1.59063121238893E-02
DEBUG_STATS_RL:                  Gv (DYNAMICS)  min= -1.34630447324912E-01
DEBUG_STATS_RL:                  Gv (DYNAMICS)  max=  4.81174890382835E-02
DEBUG_STATS_RL:                  Gv (DYNAMICS) mean= -7.41639241987065E-03
DEBUG_STATS_RL:                  Gv (DYNAMICS) S.D.=  1.85638365104700E-02
DEBUG_STATS_RL:               GuNm1 (DYNAMICS)  min= -3.33271036892904E-07
DEBUG_STATS_RL:               GuNm1 (DYNAMICS)  max=  1.87479663955270E-07
DEBUG_STATS_RL:               GuNm1 (DYNAMICS) mean= -3.31200046769952E-09
DEBUG_STATS_RL:               GuNm1 (DYNAMICS) S.D.=  4.08419141881971E-08
DEBUG_STATS_RL:               GvNm1 (DYNAMICS)  min= -2.04912919624491E-07
DEBUG_STATS_RL:               GvNm1 (DYNAMICS)  max=  1.56710147054438E-07
DEBUG_STATS_RL:               GvNm1 (DYNAMICS) mean= -8.96938696731291E-10
DEBUG_STATS_RL:               GvNm1 (DYNAMICS) S.D.=  3.95873164870957E-08
DEBUG_STATS_RL:               GtNm1 (DYNAMICS)  min=  0.00000000000000E+00
DEBUG_STATS_RL:               GtNm1 (DYNAMICS)  max=  0.00000000000000E+00
DEBUG_STATS_RL:               GtNm1 (DYNAMICS) mean=  0.00000000000000E+00
DEBUG_STATS_RL:               GtNm1 (DYNAMICS) S.D.=  0.00000000000000E+00
DEBUG_STATS_RL:               GsNm1 (DYNAMICS)  min=  0.00000000000000E+00
DEBUG_STATS_RL:               GsNm1 (DYNAMICS)  max=  0.00000000000000E+00
DEBUG_STATS_RL:               GsNm1 (DYNAMICS) mean=  0.00000000000000E+00
DEBUG_STATS_RL:               GsNm1 (DYNAMICS) S.D.=  0.00000000000000E+00
DEBUG_STATS_RL:    cg2d_b (SOLVE_FOR_PRESSURE)  min= -7.43169656861245E+03
DEBUG_STATS_RL:    cg2d_b (SOLVE_FOR_PRESSURE)  max=  2.17598296942634E+03
DEBUG_STATS_RL:    cg2d_b (SOLVE_FOR_PRESSURE) mean=  6.96331881044898E-13
DEBUG_STATS_RL:    cg2d_b (SOLVE_FOR_PRESSURE) S.D.=  9.02750100849735E+02
 cg2d: Sum(rhs),rhsMax =   1.41067713066434E-14  1.19612709187932E+00
DEBUG_STATS_RL:    cg2d_x (SOLVE_FOR_PRESSURE)  min= -1.18794061890904E+00
DEBUG_STATS_RL:    cg2d_x (SOLVE_FOR_PRESSURE)  max=  3.24511049575726E+00
DEBUG_STATS_RL:    cg2d_x (SOLVE_FOR_PRESSURE) mean= -3.88654400025836E-02
DEBUG_STATS_RL:    cg2d_x (SOLVE_FOR_PRESSURE) S.D.=  6.81167535252279E-01
DEBUG_STATS_RL:          Uvel (THERMODYNAMICS)  min= -3.57601727936033E-02
DEBUG_STATS_RL:          Uvel (THERMODYNAMICS)  max=  1.04775938290593E-01
DEBUG_STATS_RL:          Uvel (THERMODYNAMICS) mean=  4.39725630125182E-03
DEBUG_STATS_RL:          Uvel (THERMODYNAMICS) S.D.=  1.39028540310335E-02
DEBUG_STATS_RL:          Vvel (THERMODYNAMICS)  min= -1.27584762387762E-01
DEBUG_STATS_RL:          Vvel (THERMODYNAMICS)  max=  6.50083276838834E-02
DEBUG_STATS_RL:          Vvel (THERMODYNAMICS) mean= -3.36887217582008E-03
DEBUG_STATS_RL:          Vvel (THERMODYNAMICS) S.D.=  1.85890275650197E-02
DEBUG_STATS_RL:          Wvel (THERMODYNAMICS)  min= -2.67954696014334E-04
DEBUG_STATS_RL:          Wvel (THERMODYNAMICS)  max=  3.29804232734301E-04
DEBUG_STATS_RL:          Wvel (THERMODYNAMICS) mean= -4.85616750767614E-08
DEBUG_STATS_RL:          Wvel (THERMODYNAMICS) S.D.=  2.84164537902804E-05
DEBUG_STATS_RL:         Theta (THERMODYNAMICS)  min= -1.95963016104374E+00
DEBUG_STATS_RL:         Theta (THERMODYNAMICS)  max=  1.32396343409662E+01
DEBUG_STATS_RL:         Theta (THERMODYNAMICS) mean=  2.41506584132490E+00
DEBUG_STATS_RL:         Theta (THERMODYNAMICS) S.D.=  2.57443936967394E+00
DEBUG_STATS_RL:          Salt (THERMODYNAMICS)  min=  2.76338867569799E+01
DEBUG_STATS_RL:          Salt (THERMODYNAMICS)  max=  3.54511617149686E+01
DEBUG_STATS_RL:          Salt (THERMODYNAMICS) mean=  3.39367496241626E+01
DEBUG_STATS_RL:          Salt (THERMODYNAMICS) S.D.=  1.15359229307638E+00
DEBUG_STATS_RL:         GtNm1 (THERMODYNAMICS)  min=  0.00000000000000E+00
DEBUG_STATS_RL:         GtNm1 (THERMODYNAMICS)  max=  0.00000000000000E+00
DEBUG_STATS_RL:         GtNm1 (THERMODYNAMICS) mean=  0.00000000000000E+00
DEBUG_STATS_RL:         GtNm1 (THERMODYNAMICS) S.D.=  0.00000000000000E+00
DEBUG_STATS_RL:         GsNm1 (THERMODYNAMICS)  min=  0.00000000000000E+00
DEBUG_STATS_RL:         GsNm1 (THERMODYNAMICS)  max=  0.00000000000000E+00
DEBUG_STATS_RL:         GsNm1 (THERMODYNAMICS) mean=  0.00000000000000E+00
DEBUG_STATS_RL:         GsNm1 (THERMODYNAMICS) S.D.=  0.00000000000000E+00
(PID.TID 0000.0001)  MDS_READ_FIELD: opening global file: xx_atemp.effective.0000000001.data
(PID.TID 0000.0001) EXF_SET_FLD: processing field "climsss",  file: SSS_monthly.labsea1979
(PID.TID 0000.0001) EXF_SET_FLD:   myIter, count0, count1:         7      1      2
(PID.TID 0000.0001) EXF_SET_FLD:   first, changed, fac:   F   F    0.49043715846994540
(PID.TID 0000.0001) EXF_SET_FLD: processing field "uwind",  file: u10m.labsea1979
(PID.TID 0000.0001) EXF_SET_FLD:   myIter, count0, count1:         7      1      2
(PID.TID 0000.0001) EXF_SET_FLD:   first, changed, fac:   F   F    0.49043715846994540
(PID.TID 0000.0001) EXF_SET_FLD: processing field "vwind",  file: v10m.labsea1979
(PID.TID 0000.0001) EXF_SET_FLD:   myIter, count0, count1:         7      1      2
(PID.TID 0000.0001) EXF_SET_FLD:   first, changed, fac:   F   F    0.49043715846994540
(PID.TID 0000.0001) EXF_SET_FLD: processing field "atemp",  file: tair.labsea1979
(PID.TID 0000.0001) EXF_SET_FLD:   myIter, count0, count1:         7      1      2
(PID.TID 0000.0001) EXF_SET_FLD:   first, changed, fac:   F   F    0.49043715846994540
(PID.TID 0000.0001) EXF_SET_FLD: processing field "aqh",  file: qa.labsea1979
(PID.TID 0000.0001) EXF_SET_FLD:   myIter, count0, count1:         7      1      2
(PID.TID 0000.0001) EXF_SET_FLD:   first, changed, fac:   F   F    0.49043715846994540
(PID.TID 0000.0001) EXF_SET_FLD: processing field "precip",  file: prate.labsea1979
(PID.TID 0000.0001) EXF_SET_FLD:   myIter, count0, count1:         7      1      2
(PID.TID 0000.0001) EXF_SET_FLD:   first, changed, fac:   F   F    0.49043715846994540
(PID.TID 0000.0001) EXF_SET_FLD: processing field "swdown",  file: fsh.labsea1979
(PID.TID 0000.0001) EXF_SET_FLD:   myIter, count0, count1:         7      1      2
(PID.TID 0000.0001) EXF_SET_FLD:   first, changed, fac:   F   F    0.49043715846994540
(PID.TID 0000.0001) EXF_SET_FLD: processing field "lwdown",  file: flo.labsea1979
(PID.TID 0000.0001) EXF_SET_FLD:   myIter, count0, count1:         7      1      2
(PID.TID 0000.0001) EXF_SET_FLD:   first, changed, fac:   F   F    0.49043715846994540
DEBUG_STATS_RL: Uice pre  iter (SEAICE_LSR  1)  min= -1.54549194525866E-02
DEBUG_STATS_RL: Uice pre  iter (SEAICE_LSR  1)  max=  2.53524286292195E-01
DEBUG_STATS_RL: Uice pre  iter (SEAICE_LSR  1) mean=  6.68799365320119E-02
DEBUG_STATS_RL: Uice pre  iter (SEAICE_LSR  1) S.D.=  7.54478852962580E-02
DEBUG_STATS_RL: Vice pre  iter (SEAICE_LSR  1)  min= -1.68373183021268E-01
DEBUG_STATS_RL: Vice pre  iter (SEAICE_LSR  1)  max=  8.10859368452303E-02
DEBUG_STATS_RL: Vice pre  iter (SEAICE_LSR  1) mean= -4.94905385200998E-02
DEBUG_STATS_RL: Vice pre  iter (SEAICE_LSR  1) S.D.=  5.89447951203408E-02
DEBUG_STATS_RL: Uice pre  iter (SEAICE_LSR  2)  min= -1.68104910559763E-02
DEBUG_STATS_RL: Uice pre  iter (SEAICE_LSR  2)  max=  2.51381266335640E-01
DEBUG_STATS_RL: Uice pre  iter (SEAICE_LSR  2) mean=  6.26056742417120E-02
DEBUG_STATS_RL: Uice pre  iter (SEAICE_LSR  2) S.D.=  7.23215228186589E-02
DEBUG_STATS_RL: Vice pre  iter (SEAICE_LSR  2)  min= -1.70146515867233E-01
DEBUG_STATS_RL: Vice pre  iter (SEAICE_LSR  2)  max=  7.01571636850258E-02
DEBUG_STATS_RL: Vice pre  iter (SEAICE_LSR  2) mean= -5.12009841743803E-02
DEBUG_STATS_RL: Vice pre  iter (SEAICE_LSR  2) S.D.=  5.84735965012139E-02
DEBUG_STATS_RL:                EtaN (DYNAMICS)  min= -1.21025777222894E-01
DEBUG_STATS_RL:                EtaN (DYNAMICS)  max=  3.30607450971643E-01
DEBUG_STATS_RL:                EtaN (DYNAMICS) mean= -3.95955825447081E-03
DEBUG_STATS_RL:                EtaN (DYNAMICS) S.D.=  6.93964235759688E-02
DEBUG_STATS_RL:                Uvel (DYNAMICS)  min= -3.57601727936033E-02
DEBUG_STATS_RL:                Uvel (DYNAMICS)  max=  1.04775938290593E-01
DEBUG_STATS_RL:                Uvel (DYNAMICS) mean=  4.39725630125182E-03
DEBUG_STATS_RL:                Uvel (DYNAMICS) S.D.=  1.39028540310335E-02
DEBUG_STATS_RL:                Vvel (DYNAMICS)  min= -1.27584762387762E-01
DEBUG_STATS_RL:                Vvel (DYNAMICS)  max=  6.50083276838834E-02
DEBUG_STATS_RL:                Vvel (DYNAMICS) mean= -3.36887217582008E-03
DEBUG_STATS_RL:                Vvel (DYNAMICS) S.D.=  1.85890275650197E-02
DEBUG_STATS_RL:                Wvel (DYNAMICS)  min= -2.67954696014334E-04
DEBUG_STATS_RL:                Wvel (DYNAMICS)  max=  3.29804232734301E-04
DEBUG_STATS_RL:                Wvel (DYNAMICS) mean= -4.85616750767614E-08
DEBUG_STATS_RL:                Wvel (DYNAMICS) S.D.=  2.84164537902804E-05
DEBUG_STATS_RL:               Theta (DYNAMICS)  min= -1.95963016104374E+00
DEBUG_STATS_RL:               Theta (DYNAMICS)  max=  1.32396343409662E+01
DEBUG_STATS_RL:               Theta (DYNAMICS) mean=  2.41506584132490E+00
DEBUG_STATS_RL:               Theta (DYNAMICS) S.D.=  2.57443936967394E+00
DEBUG_STATS_RL:                Salt (DYNAMICS)  min=  2.76338867569799E+01
DEBUG_STATS_RL:                Salt (DYNAMICS)  max=  3.54511617149686E+01
DEBUG_STATS_RL:                Salt (DYNAMICS) mean=  3.39367496241626E+01
DEBUG_STATS_RL:                Salt (DYNAMICS) S.D.=  1.15359229307638E+00
DEBUG_STATS_RL:                  Gu (DYNAMICS)  min= -5.18639383664093E-02
DEBUG_STATS_RL:                  Gu (DYNAMICS)  max=  1.08500044377568E-01
DEBUG_STATS_RL:                  Gu (DYNAMICS) mean=  2.22152146945400E-03
DEBUG_STATS_RL:                  Gu (DYNAMICS) S.D.=  1.62488741545267E-02
DEBUG_STATS_RL:                  Gv (DYNAMICS)  min= -1.40216393355448E-01
DEBUG_STATS_RL:                  Gv (DYNAMICS)  max=  4.07135165171732E-02
DEBUG_STATS_RL:                  Gv (DYNAMICS) mean= -7.84361289825861E-03
DEBUG_STATS_RL:                  Gv (DYNAMICS) S.D.=  1.86090017356288E-02
DEBUG_STATS_RL:               GuNm1 (DYNAMICS)  min= -3.48473911940034E-07
DEBUG_STATS_RL:               GuNm1 (DYNAMICS)  max=  1.90416017948021E-07
DEBUG_STATS_RL:               GuNm1 (DYNAMICS) mean= -3.12306477014106E-09
DEBUG_STATS_RL:               GuNm1 (DYNAMICS) S.D.=  4.09417632400134E-08
DEBUG_STATS_RL:               GvNm1 (DYNAMICS)  min= -2.15359173477236E-07
DEBUG_STATS_RL:               GvNm1 (DYNAMICS)  max=  1.82438063100004E-07
DEBUG_STATS_RL:               GvNm1 (DYNAMICS) mean= -6.53519601921780E-10
DEBUG_STATS_RL:               GvNm1 (DYNAMICS) S.D.=  4.16452354556348E-08
DEBUG_STATS_RL:               GtNm1 (DYNAMICS)  min=  0.00000000000000E+00
DEBUG_STATS_RL:               GtNm1 (DYNAMICS)  max=  0.00000000000000E+00
DEBUG_STATS_RL:               GtNm1 (DYNAMICS) mean=  0.00000000000000E+00
DEBUG_STATS_RL:               GtNm1 (DYNAMICS) S.D.=  0.00000000000000E+00
DEBUG_STATS_RL:               GsNm1 (DYNAMICS)  min=  0.00000000000000E+00
DEBUG_STATS_RL:               GsNm1 (DYNAMICS)  max=  0.00000000000000E+00
DEBUG_STATS_RL:               GsNm1 (DYNAMICS) mean=  0.00000000000000E+00
DEBUG_STATS_RL:               GsNm1 (DYNAMICS) S.D.=  0.00000000000000E+00
DEBUG_STATS_RL:    cg2d_b (SOLVE_FOR_PRESSURE)  min= -7.37985604508148E+03
DEBUG_STATS_RL:    cg2d_b (SOLVE_FOR_PRESSURE)  max=  2.18366607280435E+03
DEBUG_STATS_RL:    cg2d_b (SOLVE_FOR_PRESSURE) mean=  6.18645875268461E-13
DEBUG_STATS_RL:    cg2d_b (SOLVE_FOR_PRESSURE) S.D.=  8.98963545839594E+02
 cg2d: Sum(rhs),rhsMax =   1.34267597040605E-14  1.18778339080378E+00
DEBUG_STATS_RL:    cg2d_x (SOLVE_FOR_PRESSURE)  min= -1.13929441834640E+00
DEBUG_STATS_RL:    cg2d_x (SOLVE_FOR_PRESSURE)  max=  3.20616731162253E+00
DEBUG_STATS_RL:    cg2d_x (SOLVE_FOR_PRESSURE) mean= -4.15672442271453E-02
DEBUG_STATS_RL:    cg2d_x (SOLVE_FOR_PRESSURE) S.D.=  6.51074617232215E-01
DEBUG_STATS_RL:          Uvel (THERMODYNAMICS)  min= -4.34802359621465E-02
DEBUG_STATS_RL:          Uvel (THERMODYNAMICS)  max=  9.99752242998808E-02
DEBUG_STATS_RL:          Uvel (THERMODYNAMICS) mean=  3.48264152589957E-03
DEBUG_STATS_RL:          Uvel (THERMODYNAMICS) S.D.=  1.35343125506116E-02
DEBUG_STATS_RL:          Vvel (THERMODYNAMICS)  min= -1.33439207289254E-01
DEBUG_STATS_RL:          Vvel (THERMODYNAMICS)  max=  5.60260700766945E-02
DEBUG_STATS_RL:          Vvel (THERMODYNAMICS) mean= -4.02696574872961E-03
DEBUG_STATS_RL:          Vvel (THERMODYNAMICS) S.D.=  1.80273334212797E-02
DEBUG_STATS_RL:          Wvel (THERMODYNAMICS)  min= -2.73348162229354E-04
DEBUG_STATS_RL:          Wvel (THERMODYNAMICS)  max=  3.13596923283671E-04
DEBUG_STATS_RL:          Wvel (THERMODYNAMICS) mean=  4.73709411313520E-08
DEBUG_STATS_RL:          Wvel (THERMODYNAMICS) S.D.=  2.82661454219204E-05
DEBUG_STATS_RL:         Theta (THERMODYNAMICS)  min= -1.95943609422387E+00
DEBUG_STATS_RL:         Theta (THERMODYNAMICS)  max=  1.32225113409295E+01
DEBUG_STATS_RL:         Theta (THERMODYNAMICS) mean=  2.41480286619418E+00
DEBUG_STATS_RL:         Theta (THERMODYNAMICS) S.D.=  2.57398860030337E+00
DEBUG_STATS_RL:          Salt (THERMODYNAMICS)  min=  2.76387468555707E+01
DEBUG_STATS_RL:          Salt (THERMODYNAMICS)  max=  3.54510358217953E+01
DEBUG_STATS_RL:          Salt (THERMODYNAMICS) mean=  3.39367601804946E+01
DEBUG_STATS_RL:          Salt (THERMODYNAMICS) S.D.=  1.15334890349729E+00
DEBUG_STATS_RL:         GtNm1 (THERMODYNAMICS)  min=  0.00000000000000E+00
DEBUG_STATS_RL:         GtNm1 (THERMODYNAMICS)  max=  0.00000000000000E+00
DEBUG_STATS_RL:         GtNm1 (THERMODYNAMICS) mean=  0.00000000000000E+00
DEBUG_STATS_RL:         GtNm1 (THERMODYNAMICS) S.D.=  0.00000000000000E+00
DEBUG_STATS_RL:         GsNm1 (THERMODYNAMICS)  min=  0.00000000000000E+00
DEBUG_STATS_RL:         GsNm1 (THERMODYNAMICS)  max=  0.00000000000000E+00
DEBUG_STATS_RL:         GsNm1 (THERMODYNAMICS) mean=  0.00000000000000E+00
DEBUG_STATS_RL:         GsNm1 (THERMODYNAMICS) S.D.=  0.00000000000000E+00
(PID.TID 0000.0001) ADREAD:  tid,vid, irec, length, prec(x2)=    41     1     2      672  8 64 fname=tapelev2_1_the_main_loop_etan
(PID.TID 0000.0001) ADREAD:  tid,vid, irec, length, prec(x2)=    41     2     2      672  8 64 fname=tapelev2_2_the_main_loop_taux0
(PID.TID 0000.0001) ADREAD:  tid,vid, irec, length, prec(x2)=    41     3     2      672  8 64 fname=tapelev2_3_the_main_loop_taux1
(PID.TID 0000.0001) ADREAD:  tid,vid, irec, length, prec(x2)=    41     4     2      672  8 64 fname=tapelev2_4_the_main_loop_tauy0
(PID.TID 0000.0001) ADREAD:  tid,vid, irec, length, prec(x2)=    41     5     2      672  8 64 fname=tapelev2_5_the_main_loop_tauy1
(PID.TID 0000.0001) ADREAD:  tid,vid, irec, length, prec(x2)=    41     6     2      672  8 64 fname=tapelev2_6_the_main_loop_qnet0
(PID.TID 0000.0001) ADREAD:  tid,vid, irec, length, prec(x2)=    41     7     2      672  8 64 fname=tapelev2_7_the_main_loop_qnet1
(PID.TID 0000.0001) ADREAD:  tid,vid, irec, length, prec(x2)=    41     8     2      672  8 64 fname=tapelev2_8_the_main_loop_empmr0
(PID.TID 0000.0001) ADREAD:  tid,vid, irec, length, prec(x2)=    41     9     2      672  8 64 fname=tapelev2_9_the_main_loop_empmr1
(PID.TID 0000.0001) ADREAD:  tid,vid, irec, length, prec(x2)=    41    10     2      672  8 64 fname=tapelev2_10_the_main_loop_sst0
(PID.TID 0000.0001) ADREAD:  tid,vid, irec, length, prec(x2)=    41    11     2      672  8 64 fname=tapelev2_11_the_main_loop_sst1
(PID.TID 0000.0001) ADREAD:  tid,vid, irec, length, prec(x2)=    41    12     2      672  8 64 fname=tapelev2_12_the_main_loop_sss0
(PID.TID 0000.0001) ADREAD:  tid,vid, irec, length, prec(x2)=    41    13     2      672  8 64 fname=tapelev2_13_the_main_loop_sss1
(PID.TID 0000.0001) ADREAD:  tid,vid, irec, length, prec(x2)=    41    14     2      672  8 64 fname=tapelev2_14_the_main_loop_saltflux0
(PID.TID 0000.0001) ADREAD:  tid,vid, irec, length, prec(x2)=    41    15     2      672  8 64 fname=tapelev2_15_the_main_loop_saltflux1
(PID.TID 0000.0001) ADREAD:  tid,vid, irec, length, prec(x2)=    41    16     2      672  8 64 fname=tapelev2_16_the_main_loop_qsw0
(PID.TID 0000.0001) ADREAD:  tid,vid, irec, length, prec(x2)=    41    17     2      672  8 64 fname=tapelev2_17_the_main_loop_qsw1
(PID.TID 0000.0001) ADREAD:  tid,vid, irec, length, prec(x2)=    41    18     2      672  8 64 fname=tapelev2_18_the_main_loop_pload0
(PID.TID 0000.0001) ADREAD:  tid,vid, irec, length, prec(x2)=    41    19     2      672  8 64 fname=tapelev2_19_the_main_loop_pload1
(PID.TID 0000.0001) ADREAD:  tid,vid, irec, length, prec(x2)=    41    20     2      672  8 64 fname=tapelev2_20_the_main_loop_etah
(PID.TID 0000.0001) ADREAD:  tid,vid, irec, length, prec(x2)=    41    21     2      672  8 64 fname=tapelev2_21_the_main_loop_detahdt
(PID.TID 0000.0001) ADREAD:  tid,vid, irec, length, prec(x2)=    41    22     2      672  8 64 fname=tapelev2_22_the_main_loop_pmepr
(PID.TID 0000.0001) ADREAD:  tid,vid, irec, length, prec(x2)=    41    23     2    15456  8 64 fname=tapelev2_23_the_main_loop_gtnm1
(PID.TID 0000.0001) ADREAD:  tid,vid, irec, length, prec(x2)=    41    24     2    15456  8 64 fname=tapelev2_24_the_main_loop_gsnm1
(PID.TID 0000.0001) ADREAD:  tid,vid, irec, length, prec(x2)=    41    25     2    15456  8 64 fname=tapelev2_25_the_main_loop_gunm1
(PID.TID 0000.0001) ADREAD:  tid,vid, irec, length, prec(x2)=    41    26     2    15456  8 64 fname=tapelev2_26_the_main_loop_gvnm1
(PID.TID 0000.0001) ADREAD:  tid,vid, irec, length, prec(x2)=    41    27     2    15456  8 64 fname=tapelev2_27_the_main_loop_theta
(PID.TID 0000.0001) ADREAD:  tid,vid, irec, length, prec(x2)=    41    28     2    15456  8 64 fname=tapelev2_28_the_main_loop_salt
(PID.TID 0000.0001) ADREAD:  tid,vid, irec, length, prec(x2)=    41    29     2    15456  8 64 fname=tapelev2_29_the_main_loop_uvel
(PID.TID 0000.0001) ADREAD:  tid,vid, irec, length, prec(x2)=    41    30     2    15456  8 64 fname=tapelev2_30_the_main_loop_vvel
(PID.TID 0000.0001) ADREAD:  tid,vid, irec, length, prec(x2)=    41    31     2    15456  8 64 fname=tapelev2_31_the_main_loop_wvel
(PID.TID 0000.0001) ADREAD:  tid,vid, irec, length, prec(x2)=    41    32     2    15456  8 64 fname=tapelev2_32_the_main_loop_totphihyd
(PID.TID 0000.0001) ADREAD:  tid,vid, irec, length, prec(x2)=    41    35     2    15456  8 64 fname=tapelev2_35_the_main_loop_uveld
(PID.TID 0000.0001) ADREAD:  tid,vid, irec, length, prec(x2)=    41    36     2    15456  8 64 fname=tapelev2_36_the_main_loop_vveld
(PID.TID 0000.0001) ADREAD:  tid,vid, irec, length, prec(x2)=    41    37     2      672  8 64 fname=tapelev2_37_the_main_loop_etanm1
(PID.TID 0000.0001) ADREAD:  tid,vid, irec, length, prec(x2)=    41    38     2    15456  8 64 fname=tapelev2_38_the_main_loop_unm1
(PID.TID 0000.0001) ADREAD:  tid,vid, irec, length, prec(x2)=    41    39     2    15456  8 64 fname=tapelev2_39_the_main_loop_vnm1
(PID.TID 0000.0001) ADREAD:  tid,vid, irec, length, prec(x2)=    41    40     2      672  8 64 fname=tapelev2_40_the_main_loop_areamask0
(PID.TID 0000.0001) ADREAD:  tid,vid, irec, length, prec(x2)=    41    41     2      672  8 64 fname=tapelev2_41_the_main_loop_areamask1
(PID.TID 0000.0001) ADREAD:  tid,vid, irec, length, prec(x2)=    41    42     2      672  8 64 fname=tapelev2_42_the_main_loop_hflux0
(PID.TID 0000.0001) ADREAD:  tid,vid, irec, length, prec(x2)=    41    43     2      672  8 64 fname=tapelev2_43_the_main_loop_hflux1
(PID.TID 0000.0001) ADREAD:  tid,vid, irec, length, prec(x2)=    41    44     2      672  8 64 fname=tapelev2_44_the_main_loop_sflux0
(PID.TID 0000.0001) ADREAD:  tid,vid, irec, length, prec(x2)=    41    45     2      672  8 64 fname=tapelev2_45_the_main_loop_sflux1
(PID.TID 0000.0001) ADREAD:  tid,vid, irec, length, prec(x2)=    41    46     2      672  8 64 fname=tapelev2_46_the_main_loop_ustress0
(PID.TID 0000.0001) ADREAD:  tid,vid, irec, length, prec(x2)=    41    47     2      672  8 64 fname=tapelev2_47_the_main_loop_ustress1
(PID.TID 0000.0001) ADREAD:  tid,vid, irec, length, prec(x2)=    41    48     2      672  8 64 fname=tapelev2_48_the_main_loop_vstress0
(PID.TID 0000.0001) ADREAD:  tid,vid, irec, length, prec(x2)=    41    49     2      672  8 64 fname=tapelev2_49_the_main_loop_vstress1
(PID.TID 0000.0001) ADREAD:  tid,vid, irec, length, prec(x2)=    41    50     2      672  8 64 fname=tapelev2_50_the_main_loop_wspeed0
(PID.TID 0000.0001) ADREAD:  tid,vid, irec, length, prec(x2)=    41    51     2      672  8 64 fname=tapelev2_51_the_main_loop_wspeed1
(PID.TID 0000.0001) ADREAD:  tid,vid, irec, length, prec(x2)=    41    54     2      672  8 64 fname=tapelev2_54_the_main_loop_runoff0
(PID.TID 0000.0001) ADREAD:  tid,vid, irec, length, prec(x2)=    41    55     2      672  8 64 fname=tapelev2_55_the_main_loop_runoff1
(PID.TID 0000.0001) ADREAD:  tid,vid, irec, length, prec(x2)=    41    56     2      672  8 64 fname=tapelev2_56_the_main_loop_apressure0
(PID.TID 0000.0001) ADREAD:  tid,vid, irec, length, prec(x2)=    41    57     2      672  8 64 fname=tapelev2_57_the_main_loop_apressure1
(PID.TID 0000.0001) ADREAD:  tid,vid, irec, length, prec(x2)=    41    58     2      672  8 64 fname=tapelev2_58_the_main_loop_siceload
(PID.TID 0000.0001) ADREAD:  tid,vid, irec, length, prec(x2)=    41    59     2      672  8 64 fname=tapelev2_59_the_main_loop_climsss0
(PID.TID 0000.0001) ADREAD:  tid,vid, irec, length, prec(x2)=    41    60     2      672  8 64 fname=tapelev2_60_the_main_loop_climsss1
(PID.TID 0000.0001) ADREAD:  tid,vid, irec, length, prec(x2)=    41    61     2      672  8 64 fname=tapelev2_61_the_main_loop_climsst0
(PID.TID 0000.0001) ADREAD:  tid,vid, irec, length, prec(x2)=    41    62     2      672  8 64 fname=tapelev2_62_the_main_loop_climsst1
(PID.TID 0000.0001) ADREAD:  tid,vid, irec, length, prec(x2)=    41    63     2      672  8 64 fname=tapelev2_63_the_main_loop_saltflx0
(PID.TID 0000.0001) ADREAD:  tid,vid, irec, length, prec(x2)=    41    64     2      672  8 64 fname=tapelev2_64_the_main_loop_saltflx1
(PID.TID 0000.0001) ADREAD:  tid,vid, irec, length, prec(x2)=    41    65     2      672  8 64 fname=tapelev2_65_the_main_loop_aqh0
(PID.TID 0000.0001) ADREAD:  tid,vid, irec, length, prec(x2)=    41    66     2      672  8 64 fname=tapelev2_66_the_main_loop_aqh1
(PID.TID 0000.0001) ADREAD:  tid,vid, irec, length, prec(x2)=    41    67     2      672  8 64 fname=tapelev2_67_the_main_loop_atemp0
(PID.TID 0000.0001) ADREAD:  tid,vid, irec, length, prec(x2)=    41    68     2      672  8 64 fname=tapelev2_68_the_main_loop_atemp1
(PID.TID 0000.0001) ADREAD:  tid,vid, irec, length, prec(x2)=    41    69     2      672  8 64 fname=tapelev2_69_the_main_loop_precip0
(PID.TID 0000.0001) ADREAD:  tid,vid, irec, length, prec(x2)=    41    70     2      672  8 64 fname=tapelev2_70_the_main_loop_precip1
(PID.TID 0000.0001) ADREAD:  tid,vid, irec, length, prec(x2)=    41    73     2      672  8 64 fname=tapelev2_73_the_main_loop_snowprecip0
(PID.TID 0000.0001) ADREAD:  tid,vid, irec, length, prec(x2)=    41    74     2      672  8 64 fname=tapelev2_74_the_main_loop_snowprecip1
(PID.TID 0000.0001) ADREAD:  tid,vid, irec, length, prec(x2)=    41    75     2      672  8 64 fname=tapelev2_75_the_main_loop_swdown0
(PID.TID 0000.0001) ADREAD:  tid,vid, irec, length, prec(x2)=    41    76     2      672  8 64 fname=tapelev2_76_the_main_loop_swdown1
(PID.TID 0000.0001) ADREAD:  tid,vid, irec, length, prec(x2)=    41    77     2      672  8 64 fname=tapelev2_77_the_main_loop_lwdown0
(PID.TID 0000.0001) ADREAD:  tid,vid, irec, length, prec(x2)=    41    78     2      672  8 64 fname=tapelev2_78_the_main_loop_lwdown1
(PID.TID 0000.0001) ADREAD:  tid,vid, irec, length, prec(x2)=    41    79     2      672  8 64 fname=tapelev2_79_the_main_loop_uwind0
(PID.TID 0000.0001) ADREAD:  tid,vid, irec, length, prec(x2)=    41    80     2      672  8 64 fname=tapelev2_80_the_main_loop_uwind1
(PID.TID 0000.0001) ADREAD:  tid,vid, irec, length, prec(x2)=    41    81     2      672  8 64 fname=tapelev2_81_the_main_loop_vwind0
(PID.TID 0000.0001) ADREAD:  tid,vid, irec, length, prec(x2)=    41    82     2      672  8 64 fname=tapelev2_82_the_main_loop_vwind1
(PID.TID 0000.0001) ADREAD:  tid,vid, irec, length, prec(x2)=    41    83     2     6048  8 64 fname=tapelev2_83_the_main_loop_xx_gentim2d
(PID.TID 0000.0001) ADREAD:  tid,vid, irec, length, prec(x2)=    41    84     2     6048  8 64 fname=tapelev2_84_the_main_loop_xx_gentim2d0
(PID.TID 0000.0001) ADREAD:  tid,vid, irec, length, prec(x2)=    41    85     2     6048  8 64 fname=tapelev2_85_the_main_loop_xx_gentim2d1
(PID.TID 0000.0001) ADREAD:  tid,vid, irec, length, prec(x2)=    41    87     2      672  8 64 fname=tapelev2_87_the_main_loop_phihydlow
(PID.TID 0000.0001) ADREAD:  tid,vid, irec, length, prec(x2)=    41    88     2      672  8 64 fname=tapelev2_88_the_main_loop_area
(PID.TID 0000.0001) ADREAD:  tid,vid, irec, length, prec(x2)=    41    89     2      672  8 64 fname=tapelev2_89_the_main_loop_heff
(PID.TID 0000.0001) ADREAD:  tid,vid, irec, length, prec(x2)=    41    90     2      672  8 64 fname=tapelev2_90_the_main_loop_hsnow
(PID.TID 0000.0001) ADREAD:  tid,vid, irec, length, prec(x2)=    41    92     2      672  8 64 fname=tapelev2_92_the_main_loop_uice
(PID.TID 0000.0001) ADREAD:  tid,vid, irec, length, prec(x2)=    41    93     2      672  8 64 fname=tapelev2_93_the_main_loop_vice
(PID.TID 0000.0001) ADREAD:  tid,vid, irec, length, prec(x2)=    41    96     2     4704  8 64 fname=tapelev2_96_the_main_loop_tices
(PID.TID 0000.0001) ADREAD:  tid,vid, irec, length, prec(x2)=    41    97     2      672  8 64 fname=tapelev2_97_the_main_loop_dwatn
(PID.TID 0000.0001) ADREAD:  tid,vid, irec, length, prec(x2)=    41    98     2      672  8 64 fname=tapelev2_98_the_main_loop_stressdivergencex
(PID.TID 0000.0001) ADREAD:  tid,vid, irec, length, prec(x2)=    41    99     2      672  8 64 fname=tapelev2_99_the_main_loop_stressdivergencey
(PID.TID 0000.0001) ADREAD:  tid,vid, irec, length, prec(x2)=    41   100     2      672  8 64 fname=tapelev2_100_the_main_loop_seaice_sigma1
(PID.TID 0000.0001) ADREAD:  tid,vid, irec, length, prec(x2)=    41   101     2      672  8 64 fname=tapelev2_101_the_main_loop_seaice_sigma2
(PID.TID 0000.0001) ADREAD:  tid,vid, irec, length, prec(x2)=    41   102     2      672  8 64 fname=tapelev2_102_the_main_loop_seaice_sigma12
(PID.TID 0000.0001) ADREAD:  tid,vid, irec, length, prec(x2)=    41   103     2      672  8 64 fname=tapelev2_103_the_main_loop_hsalt
(PID.TID 0000.0001)  MDS_READ_FIELD: opening global file: xx_atemp.effective.0000000001.data
(PID.TID 0000.0001) EXF_SET_FLD: processing field "climsss",  file: SSS_monthly.labsea1979
(PID.TID 0000.0001) EXF_SET_FLD:   myIter, count0, count1:         6      1      2
(PID.TID 0000.0001) EXF_SET_FLD:   first, changed, fac:   F   F    0.49180327868852458
(PID.TID 0000.0001) EXF_SET_FLD: processing field "uwind",  file: u10m.labsea1979
(PID.TID 0000.0001) EXF_SET_FLD:   myIter, count0, count1:         6      1      2
(PID.TID 0000.0001) EXF_SET_FLD:   first, changed, fac:   F   F    0.49180327868852458
(PID.TID 0000.0001) EXF_SET_FLD: processing field "vwind",  file: v10m.labsea1979
(PID.TID 0000.0001) EXF_SET_FLD:   myIter, count0, count1:         6      1      2
(PID.TID 0000.0001) EXF_SET_FLD:   first, changed, fac:   F   F    0.49180327868852458
(PID.TID 0000.0001) EXF_SET_FLD: processing field "atemp",  file: tair.labsea1979
(PID.TID 0000.0001) EXF_SET_FLD:   myIter, count0, count1:         6      1      2
(PID.TID 0000.0001) EXF_SET_FLD:   first, changed, fac:   F   F    0.49180327868852458
(PID.TID 0000.0001) EXF_SET_FLD: processing field "aqh",  file: qa.labsea1979
(PID.TID 0000.0001) EXF_SET_FLD:   myIter, count0, count1:         6      1      2
(PID.TID 0000.0001) EXF_SET_FLD:   first, changed, fac:   F   F    0.49180327868852458
(PID.TID 0000.0001) EXF_SET_FLD: processing field "precip",  file: prate.labsea1979
(PID.TID 0000.0001) EXF_SET_FLD:   myIter, count0, count1:         6      1      2
(PID.TID 0000.0001) EXF_SET_FLD:   first, changed, fac:   F   F    0.49180327868852458
(PID.TID 0000.0001) EXF_SET_FLD: processing field "swdown",  file: fsh.labsea1979
(PID.TID 0000.0001) EXF_SET_FLD:   myIter, count0, count1:         6      1      2
(PID.TID 0000.0001) EXF_SET_FLD:   first, changed, fac:   F   F    0.49180327868852458
(PID.TID 0000.0001) EXF_SET_FLD: processing field "lwdown",  file: flo.labsea1979
(PID.TID 0000.0001) EXF_SET_FLD:   myIter, count0, count1:         6      1      2
(PID.TID 0000.0001) EXF_SET_FLD:   first, changed, fac:   F   F    0.49180327868852458
DEBUG_STATS_RL:    cg2d_b (SOLVE_FOR_PRESSURE)  min= -7.43169656861245E+03
DEBUG_STATS_RL:    cg2d_b (SOLVE_FOR_PRESSURE)  max=  2.17598296942634E+03
DEBUG_STATS_RL:    cg2d_b (SOLVE_FOR_PRESSURE) mean=  6.96331881044898E-13
DEBUG_STATS_RL:    cg2d_b (SOLVE_FOR_PRESSURE) S.D.=  9.02750100849735E+02
 cg2d: Sum(rhs),rhsMax =   1.41067713066434E-14  1.19612709187932E+00
DEBUG_STATS_RL:    cg2d_x (SOLVE_FOR_PRESSURE)  min= -1.18794061890904E+00
DEBUG_STATS_RL:    cg2d_x (SOLVE_FOR_PRESSURE)  max=  3.24511049575726E+00
DEBUG_STATS_RL:    cg2d_x (SOLVE_FOR_PRESSURE) mean= -3.88654400025836E-02
DEBUG_STATS_RL:    cg2d_x (SOLVE_FOR_PRESSURE) S.D.=  6.81167535252279E-01
(PID.TID 0000.0001)  MDS_READ_FIELD: opening global file: xx_atemp.effective.0000000001.data
(PID.TID 0000.0001) EXF_SET_FLD: processing field "climsss",  file: SSS_monthly.labsea1979
(PID.TID 0000.0001) EXF_SET_FLD:   myIter, count0, count1:         7      1      2
(PID.TID 0000.0001) EXF_SET_FLD:   first, changed, fac:   F   F    0.49043715846994540
(PID.TID 0000.0001) EXF_SET_FLD: processing field "uwind",  file: u10m.labsea1979
(PID.TID 0000.0001) EXF_SET_FLD:   myIter, count0, count1:         7      1      2
(PID.TID 0000.0001) EXF_SET_FLD:   first, changed, fac:   F   F    0.49043715846994540
(PID.TID 0000.0001) EXF_SET_FLD: processing field "vwind",  file: v10m.labsea1979
(PID.TID 0000.0001) EXF_SET_FLD:   myIter, count0, count1:         7      1      2
(PID.TID 0000.0001) EXF_SET_FLD:   first, changed, fac:   F   F    0.49043715846994540
(PID.TID 0000.0001) EXF_SET_FLD: processing field "atemp",  file: tair.labsea1979
(PID.TID 0000.0001) EXF_SET_FLD:   myIter, count0, count1:         7      1      2
(PID.TID 0000.0001) EXF_SET_FLD:   first, changed, fac:   F   F    0.49043715846994540
(PID.TID 0000.0001) EXF_SET_FLD: processing field "aqh",  file: qa.labsea1979
(PID.TID 0000.0001) EXF_SET_FLD:   myIter, count0, count1:         7      1      2
(PID.TID 0000.0001) EXF_SET_FLD:   first, changed, fac:   F   F    0.49043715846994540
(PID.TID 0000.0001) EXF_SET_FLD: processing field "precip",  file: prate.labsea1979
(PID.TID 0000.0001) EXF_SET_FLD:   myIter, count0, count1:         7      1      2
(PID.TID 0000.0001) EXF_SET_FLD:   first, changed, fac:   F   F    0.49043715846994540
(PID.TID 0000.0001) EXF_SET_FLD: processing field "swdown",  file: fsh.labsea1979
(PID.TID 0000.0001) EXF_SET_FLD:   myIter, count0, count1:         7      1      2
(PID.TID 0000.0001) EXF_SET_FLD:   first, changed, fac:   F   F    0.49043715846994540
(PID.TID 0000.0001) EXF_SET_FLD: processing field "lwdown",  file: flo.labsea1979
(PID.TID 0000.0001) EXF_SET_FLD:   myIter, count0, count1:         7      1      2
(PID.TID 0000.0001) EXF_SET_FLD:   first, changed, fac:   F   F    0.49043715846994540
DEBUG_STATS_RL:    cg2d_b (SOLVE_FOR_PRESSURE)  min= -7.37985604508148E+03
DEBUG_STATS_RL:    cg2d_b (SOLVE_FOR_PRESSURE)  max=  2.18366607280435E+03
DEBUG_STATS_RL:    cg2d_b (SOLVE_FOR_PRESSURE) mean=  6.18645875268461E-13
DEBUG_STATS_RL:    cg2d_b (SOLVE_FOR_PRESSURE) S.D.=  8.98963545839594E+02
 cg2d: Sum(rhs),rhsMax =   1.34267597040605E-14  1.18778339080378E+00
DEBUG_STATS_RL:    cg2d_x (SOLVE_FOR_PRESSURE)  min= -1.13929441834640E+00
DEBUG_STATS_RL:    cg2d_x (SOLVE_FOR_PRESSURE)  max=  3.20616731162253E+00
DEBUG_STATS_RL:    cg2d_x (SOLVE_FOR_PRESSURE) mean= -4.15672442271453E-02
DEBUG_STATS_RL:    cg2d_x (SOLVE_FOR_PRESSURE) S.D.=  6.51074617232215E-01
(PID.TID 0000.0001) S/R ADAUTODIFF_INADMODE_SET: useKPP    =    T
(PID.TID 0000.0001) S/R ADAUTODIFF_INADMODE_SET: useGMRedi =    T
(PID.TID 0000.0001) S/R ADAUTODIFF_INADMODE_SET: useSEAICE =    T
(PID.TID 0000.0001) S/R ADAUTODIFF_INADMODE_SET: useGGL90    =    F
(PID.TID 0000.0001) S/R ADAUTODIFF_INADMODE_SET: useSALT_PLUME    =    F
(PID.TID 0000.0001) S/R ADAUTODIFF_INADMODE_SET: viscFacAdj = 1.00000000000000E+00
(PID.TID 0000.0001) // =======================================================
(PID.TID 0000.0001) // Begin AD_MONITOR dynamic field statistics
(PID.TID 0000.0001) // =======================================================
(PID.TID 0000.0001) %MON ad_time_tsnumber             =                     8
(PID.TID 0000.0001) %MON ad_time_secondsf             =   2.8800000000000E+04
(PID.TID 0000.0001) %MON ad_dynstat_adeta_max         =   3.9319378702208E+00
(PID.TID 0000.0001) %MON ad_dynstat_adeta_min         =  -5.3268520475845E+00
(PID.TID 0000.0001) %MON ad_dynstat_adeta_mean        =  -3.4594527363007E-02
(PID.TID 0000.0001) %MON ad_dynstat_adeta_sd          =   1.4268635417484E+00
(PID.TID 0000.0001) %MON ad_dynstat_adeta_del2        =   1.8136427446432E-01
(PID.TID 0000.0001) %MON ad_dynstat_aduvel_max        =   1.0245130933961E+00
(PID.TID 0000.0001) %MON ad_dynstat_aduvel_min        =  -2.4730533944482E+00
(PID.TID 0000.0001) %MON ad_dynstat_aduvel_mean       =  -4.2485749104333E-01
(PID.TID 0000.0001) %MON ad_dynstat_aduvel_sd         =   5.6258366699306E-01
(PID.TID 0000.0001) %MON ad_dynstat_aduvel_del2       =   8.0257579616455E-03
(PID.TID 0000.0001) %MON ad_dynstat_advvel_max        =   1.5476486579253E+00
(PID.TID 0000.0001) %MON ad_dynstat_advvel_min        =  -2.6028413192668E+00
(PID.TID 0000.0001) %MON ad_dynstat_advvel_mean       =  -6.7159323776223E-01
(PID.TID 0000.0001) %MON ad_dynstat_advvel_sd         =   8.8884713491889E-01
(PID.TID 0000.0001) %MON ad_dynstat_advvel_del2       =   6.8009888803287E-03
(PID.TID 0000.0001) %MON ad_dynstat_adwvel_max        =   2.4544885862422E+01
(PID.TID 0000.0001) %MON ad_dynstat_adwvel_min        =  -1.9496845856961E+01
(PID.TID 0000.0001) %MON ad_dynstat_adwvel_mean       =  -1.0936413634462E-02
(PID.TID 0000.0001) %MON ad_dynstat_adwvel_sd         =   6.9493393608811E-01
(PID.TID 0000.0001) %MON ad_dynstat_adwvel_del2       =   9.6916172742865E-02
(PID.TID 0000.0001) %MON ad_dynstat_adtheta_max       =   1.2292860490093E-01
(PID.TID 0000.0001) %MON ad_dynstat_adtheta_min       =  -1.4801106951400E+01
(PID.TID 0000.0001) %MON ad_dynstat_adtheta_mean      =  -4.2103367028465E-02
(PID.TID 0000.0001) %MON ad_dynstat_adtheta_sd        =   7.2640628320547E-01
(PID.TID 0000.0001) %MON ad_dynstat_adtheta_del2      =   3.0628359826988E-02
(PID.TID 0000.0001) %MON ad_dynstat_adsalt_max        =   5.1175243504601E-01
(PID.TID 0000.0001) %MON ad_dynstat_adsalt_min        =  -7.3678722677771E-01
(PID.TID 0000.0001) %MON ad_dynstat_adsalt_mean       =  -5.6827506835852E-03
(PID.TID 0000.0001) %MON ad_dynstat_adsalt_sd         =   2.2391944417904E-01
(PID.TID 0000.0001) %MON ad_dynstat_adsalt_del2       =   5.2095641501725E-03
(PID.TID 0000.0001) %MON ad_dynstat_adsst_max         =  -1.6044740579801E-01
(PID.TID 0000.0001) %MON ad_dynstat_adsst_min         =  -1.4801106951400E+01
(PID.TID 0000.0001) %MON ad_dynstat_adsst_mean        =  -6.4415071374038E+00
(PID.TID 0000.0001) %MON ad_dynstat_adsst_sd          =   6.0912039269572E+00
(PID.TID 0000.0001) %MON ad_dynstat_adsst_del2        =   3.7964546608005E-01
(PID.TID 0000.0001) %MON ad_dynstat_adsss_max         =   2.5871924873692E-02
(PID.TID 0000.0001) %MON ad_dynstat_adsss_min         =  -4.9492950878936E-02
(PID.TID 0000.0001) %MON ad_dynstat_adsss_mean        =  -2.8106720013858E-03
(PID.TID 0000.0001) %MON ad_dynstat_adsss_sd          =   1.1166835165226E-02
(PID.TID 0000.0001) %MON ad_dynstat_adsss_del2        =   1.6065461241750E-03
(PID.TID 0000.0001) // =======================================================
(PID.TID 0000.0001) // End AD_MONITOR dynamic field statistics
(PID.TID 0000.0001) // =======================================================
(PID.TID 0000.0001) // =======================================================
(PID.TID 0000.0001) // Begin AD_MONITOR SEAICE statistics
(PID.TID 0000.0001) // =======================================================
(PID.TID 0000.0001) %MON ad_seaice_tsnumber           =                     8
(PID.TID 0000.0001) %MON ad_seaice_time_sec           =   2.8800000000000E+04
(PID.TID 0000.0001) %MON ad_seaice_aduice_max         =   9.3565889326842E+01
(PID.TID 0000.0001) %MON ad_seaice_aduice_min         =  -9.5493610389648E+01
(PID.TID 0000.0001) %MON ad_seaice_aduice_mean        =  -1.9365278177154E-03
(PID.TID 0000.0001) %MON ad_seaice_aduice_sd          =   1.3045957026192E+01
(PID.TID 0000.0001) %MON ad_seaice_aduice_del2        =   3.8255351709809E+00
(PID.TID 0000.0001) %MON ad_seaice_advice_max         =   1.4802558392119E+02
(PID.TID 0000.0001) %MON ad_seaice_advice_min         =  -1.5437832250910E+02
(PID.TID 0000.0001) %MON ad_seaice_advice_mean        =   2.6358987673275E-03
(PID.TID 0000.0001) %MON ad_seaice_advice_sd          =   2.1325329485331E+01
(PID.TID 0000.0001) %MON ad_seaice_advice_del2        =   6.4710590883638E+00
(PID.TID 0000.0001) %MON ad_seaice_adarea_max         =   9.8878638120004E+00
(PID.TID 0000.0001) %MON ad_seaice_adarea_min         =  -1.4859718783451E+01
(PID.TID 0000.0001) %MON ad_seaice_adarea_mean        =  -1.4354055247801E-01
(PID.TID 0000.0001) %MON ad_seaice_adarea_sd          =   1.5910263742921E+00
(PID.TID 0000.0001) %MON ad_seaice_adarea_del2        =   4.6610591701509E-01
(PID.TID 0000.0001) %MON ad_seaice_adheff_max         =   1.1717965772727E+02
(PID.TID 0000.0001) %MON ad_seaice_adheff_min         =  -4.4699806315067E+00
(PID.TID 0000.0001) %MON ad_seaice_adheff_mean        =   4.1315499508599E+01
(PID.TID 0000.0001) %MON ad_seaice_adheff_sd          =   5.4402833116693E+01
(PID.TID 0000.0001) %MON ad_seaice_adheff_del2        =   3.4197950022536E+00
(PID.TID 0000.0001) %MON ad_seaice_adhsnow_max        =   4.2493722032964E+01
(PID.TID 0000.0001) %MON ad_seaice_adhsnow_min        =  -2.0223007157875E-07
(PID.TID 0000.0001) %MON ad_seaice_adhsnow_mean       =   1.4974045266352E+01
(PID.TID 0000.0001) %MON ad_seaice_adhsnow_sd         =   1.9708072567887E+01
(PID.TID 0000.0001) %MON ad_seaice_adhsnow_del2       =   1.2314977944623E+00
(PID.TID 0000.0001) %MON ad_seaice_adhsalt_max        =   0.0000000000000E+00
(PID.TID 0000.0001) %MON ad_seaice_adhsalt_min        =  -3.8941366319598E-04
(PID.TID 0000.0001) %MON ad_seaice_adhsalt_mean       =  -7.4339622421178E-05
(PID.TID 0000.0001) %MON ad_seaice_adhsalt_sd         =   1.0611211989938E-04
(PID.TID 0000.0001) %MON ad_seaice_adhsalt_del2       =   6.5789369900146E-06
(PID.TID 0000.0001) // =======================================================
(PID.TID 0000.0001) // End AD_MONITOR SEAICE statistics
(PID.TID 0000.0001) // =======================================================
(PID.TID 0000.0001)  MDS_WRITE_FIELD: it,rec,kS,kL,kH=       8     1   1   1   1 file=ADJetan.0000000008
 Calling cg2d from S/R CG2D_MAD
 cg2d: Sum(rhs),rhsMax =   6.49870782187811E-16  3.73062177897705E-03
(PID.TID 0000.0001)       CG2D_MAD cg2d_init_res =   2.66635493728303E+00
(PID.TID 0000.0001)      CG2D_MAD: cg2d_iters(min,last) =      -1      46
(PID.TID 0000.0001)      CG2D_MAD: cg2d_last_res =   5.32326219256547E-14
(PID.TID 0000.0001)  MDS_WRITE_FIELD: it,rec,kS,kL,kH=       7     1   1   1   1 file=ADJtaux.0000000007
(PID.TID 0000.0001)  MDS_WRITE_FIELD: it,rec,kS,kL,kH=       7     1   1   1   1 file=ADJtauy.0000000007
(PID.TID 0000.0001)  MDS_WRITE_FIELD: it,rec,kS,kL,kH=       7     1   1   1   1 file=ADJqnet.0000000007
(PID.TID 0000.0001)  MDS_WRITE_FIELD: it,rec,kS,kL,kH=       7     1   1   1   1 file=ADJempr.0000000007
(PID.TID 0000.0001)  MDS_WRITE_FIELD: it,rec,kS,kL,kH=       7     1   1   1   1 file=ADJqsw.0000000007
(PID.TID 0000.0001)  MDS_WRITE_FIELD: it,rec,kS,kL,kH=       7     1  23   1  23 file=ADJtheta.0000000007
(PID.TID 0000.0001)  MDS_WRITE_FIELD: it,rec,kS,kL,kH=       7     1  23   1  23 file=ADJsalt.0000000007
(PID.TID 0000.0001)  MDS_WRITE_FIELD: it,rec,kS,kL,kH=       7     1  23   1  23 file=ADJwvel.0000000007
(PID.TID 0000.0001)  MDS_WRITE_FIELD: it,rec,kS,kL,kH=       7     1  23   1  23 file=ADJuvel.0000000007
(PID.TID 0000.0001)  MDS_WRITE_FIELD: it,rec,kS,kL,kH=       7     1  23   1  23 file=ADJvvel.0000000007
(PID.TID 0000.0001)  MDS_WRITE_FIELD: it,rec,kS,kL,kH=       7     1   1   1   1 file=ADJarea.0000000007
(PID.TID 0000.0001)  MDS_WRITE_FIELD: it,rec,kS,kL,kH=       7     1   1   1   1 file=ADJheff.0000000007
(PID.TID 0000.0001)  MDS_WRITE_FIELD: it,rec,kS,kL,kH=       7     1   1   1   1 file=ADJhsnow.0000000007
(PID.TID 0000.0001)  MDS_WRITE_FIELD: it,rec,kS,kL,kH=       7     1   1   1   1 file=ADJuice.0000000007
(PID.TID 0000.0001)  MDS_WRITE_FIELD: it,rec,kS,kL,kH=       7     1   1   1   1 file=ADJvice.0000000007
(PID.TID 0000.0001)  MDS_WRITE_FIELD: it,rec,kS,kL,kH=       7     1   1   1   1 file=ADJustress.0000000007
(PID.TID 0000.0001)  MDS_WRITE_FIELD: it,rec,kS,kL,kH=       7     1   1   1   1 file=ADJvstress.0000000007
(PID.TID 0000.0001)  MDS_WRITE_FIELD: it,rec,kS,kL,kH=       7     1   1   1   1 file=ADJhflux.0000000007
(PID.TID 0000.0001)  MDS_WRITE_FIELD: it,rec,kS,kL,kH=       7     1   1   1   1 file=ADJsflux.0000000007
(PID.TID 0000.0001)  MDS_WRITE_FIELD: it,rec,kS,kL,kH=       7     1   1   1   1 file=ADJatemp.0000000007
(PID.TID 0000.0001)  MDS_WRITE_FIELD: it,rec,kS,kL,kH=       7     1   1   1   1 file=ADJaqh.0000000007
(PID.TID 0000.0001)  MDS_WRITE_FIELD: it,rec,kS,kL,kH=       7     1   1   1   1 file=ADJprecip.0000000007
(PID.TID 0000.0001)  MDS_WRITE_FIELD: it,rec,kS,kL,kH=       7     1   1   1   1 file=ADJrunoff.0000000007
(PID.TID 0000.0001)  MDS_WRITE_FIELD: it,rec,kS,kL,kH=       7     1   1   1   1 file=ADJuwind.0000000007
(PID.TID 0000.0001)  MDS_WRITE_FIELD: it,rec,kS,kL,kH=       7     1   1   1   1 file=ADJvwind.0000000007
(PID.TID 0000.0001)  MDS_WRITE_FIELD: it,rec,kS,kL,kH=       7     1   1   1   1 file=ADJswdown.0000000007
(PID.TID 0000.0001)  MDS_WRITE_FIELD: it,rec,kS,kL,kH=       7     1   1   1   1 file=ADJlwdown.0000000007
(PID.TID 0000.0001)  MDS_WRITE_FIELD: it,rec,kS,kL,kH=       7     1   1   1   1 file=ADJclimsst.0000000007
(PID.TID 0000.0001)  MDS_WRITE_FIELD: it,rec,kS,kL,kH=       7     1   1   1   1 file=ADJclimsss.0000000007
(PID.TID 0000.0001)  MDS_READ_FIELD: opening global file: adxx_atemp.effective.0000000001.data
(PID.TID 0000.0001)  MDS_WRITE_FIELD: it,rec,kS,kL,kH=       1    -9  23   1   1 file=adxx_atemp.effective.0000000001
(PID.TID 0000.0001) S/R ADAUTODIFF_INADMODE_UNSET: useKPP    =    T
(PID.TID 0000.0001) S/R ADAUTODIFF_INADMODE_UNSET: useGMRedi =    T
(PID.TID 0000.0001) S/R ADAUTODIFF_INADMODE_UNSET: useSEAICE =    T
(PID.TID 0000.0001) S/R ADAUTODIFF_INADMODE_UNSET: useGGL90    =    F
(PID.TID 0000.0001) S/R ADAUTODIFF_INADMODE_UNSET: useSALT_PLUME    =    F
(PID.TID 0000.0001) S/R ADAUTODIFF_INADMODE_UNSET: viscFacAdj = 1.00000000000000E+00
(PID.TID 0000.0001)  MDS_READ_FIELD: opening global file: adm_sst_step.0000000001.data
(PID.TID 0000.0001)  MDS_WRITE_FIELD: it,rec,kS,kL,kH=       1    -8  23   1   1 file=adm_sst_step.0000000001
(PID.TID 0000.0001) S/R ADAUTODIFF_INADMODE_SET: useKPP    =    T
(PID.TID 0000.0001) S/R ADAUTODIFF_INADMODE_SET: useGMRedi =    T
(PID.TID 0000.0001) S/R ADAUTODIFF_INADMODE_SET: useSEAICE =    T
(PID.TID 0000.0001) S/R ADAUTODIFF_INADMODE_SET: useGGL90    =    F
(PID.TID 0000.0001) S/R ADAUTODIFF_INADMODE_SET: useSALT_PLUME    =    F
(PID.TID 0000.0001) S/R ADAUTODIFF_INADMODE_SET: viscFacAdj = 1.00000000000000E+00
(PID.TID 0000.0001) // =======================================================
(PID.TID 0000.0001) // Begin AD_MONITOR dynamic field statistics
(PID.TID 0000.0001) // =======================================================
(PID.TID 0000.0001) %MON ad_time_tsnumber             =                     7
(PID.TID 0000.0001) %MON ad_time_secondsf             =   2.5200000000000E+04
(PID.TID 0000.0001) %MON ad_dynstat_adeta_max         =   7.2245958899191E+00
(PID.TID 0000.0001) %MON ad_dynstat_adeta_min         =  -5.9661141283830E+00
(PID.TID 0000.0001) %MON ad_dynstat_adeta_mean        =  -3.5802886569776E-02
(PID.TID 0000.0001) %MON ad_dynstat_adeta_sd          =   2.1566036757992E+00
(PID.TID 0000.0001) %MON ad_dynstat_adeta_del2        =   2.7797599865362E-01
(PID.TID 0000.0001) %MON ad_dynstat_aduvel_max        =   3.0639526691065E+01
(PID.TID 0000.0001) %MON ad_dynstat_aduvel_min        =  -2.5780081286865E+01
(PID.TID 0000.0001) %MON ad_dynstat_aduvel_mean       =  -1.1372224284936E+00
(PID.TID 0000.0001) %MON ad_dynstat_aduvel_sd         =   1.2068413102333E+00
(PID.TID 0000.0001) %MON ad_dynstat_aduvel_del2       =   8.6884324668516E-02
(PID.TID 0000.0001) %MON ad_dynstat_advvel_max        =   1.8989892913762E+02
(PID.TID 0000.0001) %MON ad_dynstat_advvel_min        =  -1.2224973400778E+02
(PID.TID 0000.0001) %MON ad_dynstat_advvel_mean       =   9.7690906885992E-01
(PID.TID 0000.0001) %MON ad_dynstat_advvel_sd         =   2.2294047430825E+00
(PID.TID 0000.0001) %MON ad_dynstat_advvel_del2       =   4.7437094570549E-01
(PID.TID 0000.0001) %MON ad_dynstat_adwvel_max        =   4.2934859430843E+01
(PID.TID 0000.0001) %MON ad_dynstat_adwvel_min        =  -2.7411616618714E+01
(PID.TID 0000.0001) %MON ad_dynstat_adwvel_mean       =  -3.6656997214763E-03
(PID.TID 0000.0001) %MON ad_dynstat_adwvel_sd         =   9.4706002386471E-01
(PID.TID 0000.0001) %MON ad_dynstat_adwvel_del2       =   1.1665986006703E-01
(PID.TID 0000.0001) %MON ad_dynstat_adtheta_max       =   2.1887980544549E-01
(PID.TID 0000.0001) %MON ad_dynstat_adtheta_min       =  -1.4771105931127E+01
(PID.TID 0000.0001) %MON ad_dynstat_adtheta_mean      =  -3.6405606554614E-02
(PID.TID 0000.0001) %MON ad_dynstat_adtheta_sd        =   7.1687431850148E-01
(PID.TID 0000.0001) %MON ad_dynstat_adtheta_del2      =   3.4383132882577E-02
(PID.TID 0000.0001) %MON ad_dynstat_adsalt_max        =   1.4762080021826E+00
(PID.TID 0000.0001) %MON ad_dynstat_adsalt_min        =  -1.4030418892250E+00
(PID.TID 0000.0001) %MON ad_dynstat_adsalt_mean       =  -3.1114783486586E-03
(PID.TID 0000.0001) %MON ad_dynstat_adsalt_sd         =   3.9322663666908E-01
(PID.TID 0000.0001) %MON ad_dynstat_adsalt_del2       =   9.2304673648541E-03
(PID.TID 0000.0001) %MON ad_dynstat_adsst_max         =   1.0539334135652E-01
(PID.TID 0000.0001) %MON ad_dynstat_adsst_min         =  -1.4771105931127E+01
(PID.TID 0000.0001) %MON ad_dynstat_adsst_mean        =  -5.4847770268307E+00
(PID.TID 0000.0001) %MON ad_dynstat_adsst_sd          =   6.7780741149231E+00
(PID.TID 0000.0001) %MON ad_dynstat_adsst_del2        =   4.2592947936177E-01
(PID.TID 0000.0001) %MON ad_dynstat_adsss_max         =   5.1489988640999E-02
(PID.TID 0000.0001) %MON ad_dynstat_adsss_min         =  -5.5599276838372E-02
(PID.TID 0000.0001) %MON ad_dynstat_adsss_mean        =  -4.1505159630421E-03
(PID.TID 0000.0001) %MON ad_dynstat_adsss_sd          =   1.6411094699724E-02
(PID.TID 0000.0001) %MON ad_dynstat_adsss_del2        =   2.1111655028992E-03
(PID.TID 0000.0001) // =======================================================
(PID.TID 0000.0001) // End AD_MONITOR dynamic field statistics
(PID.TID 0000.0001) // =======================================================
(PID.TID 0000.0001) // =======================================================
(PID.TID 0000.0001) // Begin AD_MONITOR SEAICE statistics
(PID.TID 0000.0001) // =======================================================
(PID.TID 0000.0001) %MON ad_seaice_tsnumber           =                     7
(PID.TID 0000.0001) %MON ad_seaice_time_sec           =   2.5200000000000E+04
(PID.TID 0000.0001) %MON ad_seaice_aduice_max         =   2.5409793561252E+04
(PID.TID 0000.0001) %MON ad_seaice_aduice_min         =  -2.3195846934868E+04
(PID.TID 0000.0001) %MON ad_seaice_aduice_mean        =  -5.5178018888977E-01
(PID.TID 0000.0001) %MON ad_seaice_aduice_sd          =   3.3118238588580E+03
(PID.TID 0000.0001) %MON ad_seaice_aduice_del2        =   1.0200995977867E+03
(PID.TID 0000.0001) %MON ad_seaice_advice_max         =   2.0396968391511E+04
(PID.TID 0000.0001) %MON ad_seaice_advice_min         =  -4.0109448256509E+04
(PID.TID 0000.0001) %MON ad_seaice_advice_mean        =   2.4942667214661E+00
(PID.TID 0000.0001) %MON ad_seaice_advice_sd          =   4.6571007647094E+03
(PID.TID 0000.0001) %MON ad_seaice_advice_del2        =   1.4984097967925E+03
(PID.TID 0000.0001) %MON ad_seaice_adarea_max         =   1.2508172234452E+03
(PID.TID 0000.0001) %MON ad_seaice_adarea_min         =  -3.2259571271765E+03
(PID.TID 0000.0001) %MON ad_seaice_adarea_mean        =  -2.0199076660156E+01
(PID.TID 0000.0001) %MON ad_seaice_adarea_sd          =   3.1838073492221E+02
(PID.TID 0000.0001) %MON ad_seaice_adarea_del2        =   8.3697542267960E+01
(PID.TID 0000.0001) %MON ad_seaice_adheff_max         =   5.8582121276882E+02
(PID.TID 0000.0001) %MON ad_seaice_adheff_min         =  -9.7696974339434E+02
(PID.TID 0000.0001) %MON ad_seaice_adheff_mean        =   3.6198099212732E+01
(PID.TID 0000.0001) %MON ad_seaice_adheff_sd          =   1.2065641428445E+02
(PID.TID 0000.0001) %MON ad_seaice_adheff_del2        =   2.8452064585811E+01
(PID.TID 0000.0001) %MON ad_seaice_adhsnow_max        =   4.2420863047405E+01
(PID.TID 0000.0001) %MON ad_seaice_adhsnow_min        =  -1.4275249858134E+00
(PID.TID 0000.0001) %MON ad_seaice_adhsnow_mean       =   1.4954051324010E+01
(PID.TID 0000.0001) %MON ad_seaice_adhsnow_sd         =   1.9680107039292E+01
(PID.TID 0000.0001) %MON ad_seaice_adhsnow_del2       =   1.2290061815618E+00
(PID.TID 0000.0001) %MON ad_seaice_adhsalt_max        =   9.4022622949527E-07
(PID.TID 0000.0001) %MON ad_seaice_adhsalt_min        =  -3.8837429656842E-04
(PID.TID 0000.0001) %MON ad_seaice_adhsalt_mean       =  -7.4864413391211E-05
(PID.TID 0000.0001) %MON ad_seaice_adhsalt_sd         =   1.0709055708878E-04
(PID.TID 0000.0001) %MON ad_seaice_adhsalt_del2       =   6.5303705906267E-06
(PID.TID 0000.0001) // =======================================================
(PID.TID 0000.0001) // End AD_MONITOR SEAICE statistics
(PID.TID 0000.0001) // =======================================================
(PID.TID 0000.0001)  MDS_WRITE_FIELD: it,rec,kS,kL,kH=       7     1   1   1   1 file=ADJetan.0000000007
 Calling cg2d from S/R CG2D_MAD
 cg2d: Sum(rhs),rhsMax =   2.42405921724309E-15  4.42152082509633E-03
(PID.TID 0000.0001)       CG2D_MAD cg2d_init_res =   2.51644605263405E+00
(PID.TID 0000.0001)      CG2D_MAD: cg2d_iters(min,last) =      -1      46
(PID.TID 0000.0001)      CG2D_MAD: cg2d_last_res =   5.44549525331232E-14
(PID.TID 0000.0001)  MDS_WRITE_FIELD: it,rec,kS,kL,kH=       6     1   1   1   1 file=ADJtaux.0000000006
(PID.TID 0000.0001)  MDS_WRITE_FIELD: it,rec,kS,kL,kH=       6     1   1   1   1 file=ADJtauy.0000000006
(PID.TID 0000.0001)  MDS_WRITE_FIELD: it,rec,kS,kL,kH=       6     1   1   1   1 file=ADJqnet.0000000006
(PID.TID 0000.0001)  MDS_WRITE_FIELD: it,rec,kS,kL,kH=       6     1   1   1   1 file=ADJempr.0000000006
(PID.TID 0000.0001)  MDS_WRITE_FIELD: it,rec,kS,kL,kH=       6     1   1   1   1 file=ADJqsw.0000000006
(PID.TID 0000.0001) // =======================================================
(PID.TID 0000.0001) // Begin AD_MONITOR EXF statistics for iwhen =  3
(PID.TID 0000.0001) // =======================================================
(PID.TID 0000.0001) %MON ad_exf_tsnumber              =                     6
(PID.TID 0000.0001) %MON ad_exf_time_sec              =   2.1600000000000E+04
(PID.TID 0000.0001) %MON ad_exf_adfu_max              =   6.6074595997636E+00
(PID.TID 0000.0001) %MON ad_exf_adfu_min              =  -8.6419774589540E+00
(PID.TID 0000.0001) %MON ad_exf_adfu_mean             =   3.6357525140890E-01
(PID.TID 0000.0001) %MON ad_exf_adfu_sd               =   1.4989447964475E+00
(PID.TID 0000.0001) %MON ad_exf_adfu_del2             =   3.0992524091678E-01
(PID.TID 0000.0001) %MON ad_exf_adfv_max              =   6.6611503820487E+01
(PID.TID 0000.0001) %MON ad_exf_adfv_min              =  -4.3230709432465E+01
(PID.TID 0000.0001) %MON ad_exf_adfv_mean             =   1.0849961215944E-01
(PID.TID 0000.0001) %MON ad_exf_adfv_sd               =   7.9192995978592E+00
(PID.TID 0000.0001) %MON ad_exf_adfv_del2             =   1.9145288211134E+00
(PID.TID 0000.0001) %MON ad_exf_adqnet_max            =   1.2913602892820E-03
(PID.TID 0000.0001) %MON ad_exf_adqnet_min            =  -9.1986604028160E-06
(PID.TID 0000.0001) %MON ad_exf_adqnet_mean           =   4.7823687300020E-04
(PID.TID 0000.0001) %MON ad_exf_adqnet_sd             =   5.9078191968215E-04
(PID.TID 0000.0001) %MON ad_exf_adqnet_del2           =   3.7388833553539E-05
(PID.TID 0000.0001) %MON ad_exf_adempmr_max           =   5.2407965688970E-01
(PID.TID 0000.0001) %MON ad_exf_adempmr_min           =  -4.5353572804414E+01
(PID.TID 0000.0001) %MON ad_exf_adempmr_mean          =  -9.3801798761737E+00
(PID.TID 0000.0001) %MON ad_exf_adempmr_sd            =   1.3028475460874E+01
(PID.TID 0000.0001) %MON ad_exf_adempmr_del2          =   7.6248205936990E-01
(PID.TID 0000.0001) %MON ad_exf_adqsw_max             =   2.1335451403707E-06
(PID.TID 0000.0001) %MON ad_exf_adqsw_min             =  -2.9740981713387E-04
(PID.TID 0000.0001) %MON ad_exf_adqsw_mean            =  -1.1018987442250E-04
(PID.TID 0000.0001) %MON ad_exf_adqsw_sd              =   1.3621213439982E-04
(PID.TID 0000.0001) %MON ad_exf_adqsw_del2            =   8.6093937572449E-06
(PID.TID 0000.0001) // =======================================================
(PID.TID 0000.0001) // End AD_MONITOR EXF statistics for iwhen =  3
(PID.TID 0000.0001) // =======================================================
(PID.TID 0000.0001)  MDS_WRITE_FIELD: it,rec,kS,kL,kH=       6     1  23   1  23 file=ADJtheta.0000000006
(PID.TID 0000.0001)  MDS_WRITE_FIELD: it,rec,kS,kL,kH=       6     1  23   1  23 file=ADJsalt.0000000006
(PID.TID 0000.0001)  MDS_WRITE_FIELD: it,rec,kS,kL,kH=       6     1  23   1  23 file=ADJwvel.0000000006
(PID.TID 0000.0001)  MDS_WRITE_FIELD: it,rec,kS,kL,kH=       6     1  23   1  23 file=ADJuvel.0000000006
(PID.TID 0000.0001)  MDS_WRITE_FIELD: it,rec,kS,kL,kH=       6     1  23   1  23 file=ADJvvel.0000000006
(PID.TID 0000.0001)  MDS_WRITE_FIELD: it,rec,kS,kL,kH=       6     1   1   1   1 file=ADJarea.0000000006
(PID.TID 0000.0001)  MDS_WRITE_FIELD: it,rec,kS,kL,kH=       6     1   1   1   1 file=ADJheff.0000000006
(PID.TID 0000.0001)  MDS_WRITE_FIELD: it,rec,kS,kL,kH=       6     1   1   1   1 file=ADJhsnow.0000000006
(PID.TID 0000.0001)  MDS_WRITE_FIELD: it,rec,kS,kL,kH=       6     1   1   1   1 file=ADJuice.0000000006
(PID.TID 0000.0001)  MDS_WRITE_FIELD: it,rec,kS,kL,kH=       6     1   1   1   1 file=ADJvice.0000000006
(PID.TID 0000.0001)  MDS_WRITE_FIELD: it,rec,kS,kL,kH=       6     1   1   1   1 file=ADJustress.0000000006
(PID.TID 0000.0001)  MDS_WRITE_FIELD: it,rec,kS,kL,kH=       6     1   1   1   1 file=ADJvstress.0000000006
(PID.TID 0000.0001)  MDS_WRITE_FIELD: it,rec,kS,kL,kH=       6     1   1   1   1 file=ADJhflux.0000000006
(PID.TID 0000.0001)  MDS_WRITE_FIELD: it,rec,kS,kL,kH=       6     1   1   1   1 file=ADJsflux.0000000006
(PID.TID 0000.0001) // =======================================================
(PID.TID 0000.0001) // Begin AD_MONITOR EXF statistics for iwhen =  1
(PID.TID 0000.0001) // =======================================================
(PID.TID 0000.0001) %MON ad_exf_tsnumber              =                     6
(PID.TID 0000.0001) %MON ad_exf_time_sec              =   2.1600000000000E+04
(PID.TID 0000.0001) %MON ad_exf_adustress_max         =   1.0397020592420E+00
(PID.TID 0000.0001) %MON ad_exf_adustress_min         =  -2.1438914844751E-01
(PID.TID 0000.0001) %MON ad_exf_adustress_mean        =   6.1649979419402E-02
(PID.TID 0000.0001) %MON ad_exf_adustress_sd          =   1.8114224723183E-01
(PID.TID 0000.0001) %MON ad_exf_adustress_del2        =   2.6904174139044E-02
(PID.TID 0000.0001) %MON ad_exf_advstress_max         =   2.5223425854496E+00
(PID.TID 0000.0001) %MON ad_exf_advstress_min         =  -3.8424954761940E-01
(PID.TID 0000.0001) %MON ad_exf_advstress_mean        =   8.2586042573789E-02
(PID.TID 0000.0001) %MON ad_exf_advstress_sd          =   3.3223690725487E-01
(PID.TID 0000.0001) %MON ad_exf_advstress_del2        =   5.3727928571322E-02
(PID.TID 0000.0001) %MON ad_exf_adhflux_max           =   1.2913602892820E-03
(PID.TID 0000.0001) %MON ad_exf_adhflux_min           =  -7.9294585000273E-06
(PID.TID 0000.0001) %MON ad_exf_adhflux_mean          =   4.5066640167044E-04
(PID.TID 0000.0001) %MON ad_exf_adhflux_sd            =   6.0212984126366E-04
(PID.TID 0000.0001) %MON ad_exf_adhflux_del2          =   3.9300428057847E-05
(PID.TID 0000.0001) %MON ad_exf_adsflux_max           =   0.0000000000000E+00
(PID.TID 0000.0001) %MON ad_exf_adsflux_min           =   0.0000000000000E+00
(PID.TID 0000.0001) %MON ad_exf_adsflux_mean          =   0.0000000000000E+00
(PID.TID 0000.0001) %MON ad_exf_adsflux_sd            =   0.0000000000000E+00
(PID.TID 0000.0001) %MON ad_exf_adsflux_del2          =   0.0000000000000E+00
(PID.TID 0000.0001) %MON ad_exf_adswflux_max          =   9.9397409353666E-04
(PID.TID 0000.0001) %MON ad_exf_adswflux_min          =  -7.9386818937793E-06
(PID.TID 0000.0001) %MON ad_exf_adswflux_mean         =   3.4677206370726E-04
(PID.TID 0000.0001) %MON ad_exf_adswflux_sd           =   4.6333918250084E-04
(PID.TID 0000.0001) %MON ad_exf_adswflux_del2         =   3.0249982657628E-05
(PID.TID 0000.0001) %MON ad_exf_adwspeed_max          =   5.7134984296350E-03
(PID.TID 0000.0001) %MON ad_exf_adwspeed_min          =  -5.1480297275913E-03
(PID.TID 0000.0001) %MON ad_exf_adwspeed_mean         =   1.5753870499489E-06
(PID.TID 0000.0001) %MON ad_exf_adwspeed_sd           =   7.8436463223596E-04
(PID.TID 0000.0001) %MON ad_exf_adwspeed_del2         =   2.0282252991478E-04
(PID.TID 0000.0001) // =======================================================
(PID.TID 0000.0001) // End AD_MONITOR EXF statistics for iwhen =  1
(PID.TID 0000.0001) // =======================================================
(PID.TID 0000.0001)  MDS_WRITE_FIELD: it,rec,kS,kL,kH=       6     1   1   1   1 file=ADJatemp.0000000006
(PID.TID 0000.0001)  MDS_WRITE_FIELD: it,rec,kS,kL,kH=       6     1   1   1   1 file=ADJaqh.0000000006
(PID.TID 0000.0001)  MDS_WRITE_FIELD: it,rec,kS,kL,kH=       6     1   1   1   1 file=ADJprecip.0000000006
(PID.TID 0000.0001)  MDS_WRITE_FIELD: it,rec,kS,kL,kH=       6     1   1   1   1 file=ADJrunoff.0000000006
(PID.TID 0000.0001)  MDS_WRITE_FIELD: it,rec,kS,kL,kH=       6     1   1   1   1 file=ADJuwind.0000000006
(PID.TID 0000.0001)  MDS_WRITE_FIELD: it,rec,kS,kL,kH=       6     1   1   1   1 file=ADJvwind.0000000006
(PID.TID 0000.0001)  MDS_WRITE_FIELD: it,rec,kS,kL,kH=       6     1   1   1   1 file=ADJswdown.0000000006
(PID.TID 0000.0001)  MDS_WRITE_FIELD: it,rec,kS,kL,kH=       6     1   1   1   1 file=ADJlwdown.0000000006
(PID.TID 0000.0001)  MDS_WRITE_FIELD: it,rec,kS,kL,kH=       6     1   1   1   1 file=ADJclimsst.0000000006
(PID.TID 0000.0001)  MDS_WRITE_FIELD: it,rec,kS,kL,kH=       6     1   1   1   1 file=ADJclimsss.0000000006
(PID.TID 0000.0001) // =======================================================
(PID.TID 0000.0001) // Begin AD_MONITOR EXF statistics for iwhen =  2
(PID.TID 0000.0001) // =======================================================
(PID.TID 0000.0001) %MON ad_exf_tsnumber              =                     6
(PID.TID 0000.0001) %MON ad_exf_time_sec              =   2.1600000000000E+04
(PID.TID 0000.0001) %MON ad_exf_aduwind_max           =   1.3742640596171E+02
(PID.TID 0000.0001) %MON ad_exf_aduwind_min           =  -8.1490816196462E+01
(PID.TID 0000.0001) %MON ad_exf_aduwind_mean          =  -1.0929874082131E-01
(PID.TID 0000.0001) %MON ad_exf_aduwind_sd            =   2.0377784174446E+01
(PID.TID 0000.0001) %MON ad_exf_aduwind_del2          =   3.4139195073855E+00
(PID.TID 0000.0001) %MON ad_exf_advwind_max           =   9.7446261496829E+01
(PID.TID 0000.0001) %MON ad_exf_advwind_min           =  -5.6656643816988E+01
(PID.TID 0000.0001) %MON ad_exf_advwind_mean          =   4.6892689185930E-01
(PID.TID 0000.0001) %MON ad_exf_advwind_sd            =   1.4274513474039E+01
(PID.TID 0000.0001) %MON ad_exf_advwind_del2          =   2.6069210365137E+00
(PID.TID 0000.0001) %MON ad_exf_adatemp_max           =   1.7483956438581E-02
(PID.TID 0000.0001) %MON ad_exf_adatemp_min           =  -1.4252669058817E-02
(PID.TID 0000.0001) %MON ad_exf_adatemp_mean          =  -1.9534767996901E-03
(PID.TID 0000.0001) %MON ad_exf_adatemp_sd            =   3.6994681935212E-03
(PID.TID 0000.0001) %MON ad_exf_adatemp_del2          =   5.9596276240022E-04
(PID.TID 0000.0001) %MON ad_exf_adaqh_max             =   4.9073043523946E+01
(PID.TID 0000.0001) %MON ad_exf_adaqh_min             =  -4.0191108569839E+01
(PID.TID 0000.0001) %MON ad_exf_adaqh_mean            =  -7.9204694716209E+00
(PID.TID 0000.0001) %MON ad_exf_adaqh_sd              =   1.2691498893557E+01
(PID.TID 0000.0001) %MON ad_exf_adaqh_del2            =   1.7380572680669E+00
(PID.TID 0000.0001) %MON ad_exf_adprecip_max          =   2.0549497264262E+06
(PID.TID 0000.0001) %MON ad_exf_adprecip_min          =  -3.4257150288005E+06
(PID.TID 0000.0001) %MON ad_exf_adprecip_mean         =  -5.6443429190708E+03
(PID.TID 0000.0001) %MON ad_exf_adprecip_sd           =   3.7331382391331E+05
(PID.TID 0000.0001) %MON ad_exf_adprecip_del2         =   9.9412716026212E+04
(PID.TID 0000.0001) %MON ad_exf_adlwdown_max          =   1.4455011118591E-03
(PID.TID 0000.0001) %MON ad_exf_adlwdown_min          =  -1.2526422559172E-03
(PID.TID 0000.0001) %MON ad_exf_adlwdown_mean         =  -4.3710684567586E-04
(PID.TID 0000.0001) %MON ad_exf_adlwdown_sd           =   6.1369840964550E-04
(PID.TID 0000.0001) %MON ad_exf_adlwdown_del2         =   5.9371501279470E-05
(PID.TID 0000.0001) %MON ad_exf_adswdown_max          =   3.2645002482431E-04
(PID.TID 0000.0001) %MON ad_exf_adswdown_min          =  -8.9457668418300E-04
(PID.TID 0000.0001) %MON ad_exf_adswdown_mean         =  -3.1237963966466E-04
(PID.TID 0000.0001) %MON ad_exf_adswdown_sd           =   4.1916629689607E-04
(PID.TID 0000.0001) %MON ad_exf_adswdown_del2         =   2.8508091169762E-05
(PID.TID 0000.0001) %MON ad_exf_adrunoff_max          =   1.4332618476358E+05
(PID.TID 0000.0001) %MON ad_exf_adrunoff_min          =  -6.8330130274746E+02
(PID.TID 0000.0001) %MON ad_exf_adrunoff_mean         =   3.6071545641634E+04
(PID.TID 0000.0001) %MON ad_exf_adrunoff_sd           =   3.7435188689912E+04
(PID.TID 0000.0001) %MON ad_exf_adrunoff_del2         =   2.7918162695703E+03
(PID.TID 0000.0001) // =======================================================
(PID.TID 0000.0001) // End AD_MONITOR EXF statistics for iwhen =  2
(PID.TID 0000.0001) // =======================================================
(PID.TID 0000.0001)  MDS_READ_FIELD: opening global file: adxx_atemp.effective.0000000001.data
(PID.TID 0000.0001)  MDS_WRITE_FIELD: it,rec,kS,kL,kH=       1    -8  23   1   1 file=adxx_atemp.effective.0000000001
(PID.TID 0000.0001) S/R ADAUTODIFF_INADMODE_UNSET: useKPP    =    T
(PID.TID 0000.0001) S/R ADAUTODIFF_INADMODE_UNSET: useGMRedi =    T
(PID.TID 0000.0001) S/R ADAUTODIFF_INADMODE_UNSET: useSEAICE =    T
(PID.TID 0000.0001) S/R ADAUTODIFF_INADMODE_UNSET: useGGL90    =    F
(PID.TID 0000.0001) S/R ADAUTODIFF_INADMODE_UNSET: useSALT_PLUME    =    F
(PID.TID 0000.0001) S/R ADAUTODIFF_INADMODE_UNSET: viscFacAdj = 1.00000000000000E+00
(PID.TID 0000.0001)  MDS_READ_FIELD: opening global file: adm_sst_step.0000000001.data
(PID.TID 0000.0001)  MDS_WRITE_FIELD: it,rec,kS,kL,kH=       1    -7  23   1   1 file=adm_sst_step.0000000001
(PID.TID 0000.0001) ADREAD:  tid,vid, irec, length, prec(x2)=    41     1     1      672  8 64 fname=tapelev2_1_the_main_loop_etan
(PID.TID 0000.0001) ADREAD:  tid,vid, irec, length, prec(x2)=    41     2     1      672  8 64 fname=tapelev2_2_the_main_loop_taux0
(PID.TID 0000.0001) ADREAD:  tid,vid, irec, length, prec(x2)=    41     3     1      672  8 64 fname=tapelev2_3_the_main_loop_taux1
(PID.TID 0000.0001) ADREAD:  tid,vid, irec, length, prec(x2)=    41     4     1      672  8 64 fname=tapelev2_4_the_main_loop_tauy0
(PID.TID 0000.0001) ADREAD:  tid,vid, irec, length, prec(x2)=    41     5     1      672  8 64 fname=tapelev2_5_the_main_loop_tauy1
(PID.TID 0000.0001) ADREAD:  tid,vid, irec, length, prec(x2)=    41     6     1      672  8 64 fname=tapelev2_6_the_main_loop_qnet0
(PID.TID 0000.0001) ADREAD:  tid,vid, irec, length, prec(x2)=    41     7     1      672  8 64 fname=tapelev2_7_the_main_loop_qnet1
(PID.TID 0000.0001) ADREAD:  tid,vid, irec, length, prec(x2)=    41     8     1      672  8 64 fname=tapelev2_8_the_main_loop_empmr0
(PID.TID 0000.0001) ADREAD:  tid,vid, irec, length, prec(x2)=    41     9     1      672  8 64 fname=tapelev2_9_the_main_loop_empmr1
(PID.TID 0000.0001) ADREAD:  tid,vid, irec, length, prec(x2)=    41    10     1      672  8 64 fname=tapelev2_10_the_main_loop_sst0
(PID.TID 0000.0001) ADREAD:  tid,vid, irec, length, prec(x2)=    41    11     1      672  8 64 fname=tapelev2_11_the_main_loop_sst1
(PID.TID 0000.0001) ADREAD:  tid,vid, irec, length, prec(x2)=    41    12     1      672  8 64 fname=tapelev2_12_the_main_loop_sss0
(PID.TID 0000.0001) ADREAD:  tid,vid, irec, length, prec(x2)=    41    13     1      672  8 64 fname=tapelev2_13_the_main_loop_sss1
(PID.TID 0000.0001) ADREAD:  tid,vid, irec, length, prec(x2)=    41    14     1      672  8 64 fname=tapelev2_14_the_main_loop_saltflux0
(PID.TID 0000.0001) ADREAD:  tid,vid, irec, length, prec(x2)=    41    15     1      672  8 64 fname=tapelev2_15_the_main_loop_saltflux1
(PID.TID 0000.0001) ADREAD:  tid,vid, irec, length, prec(x2)=    41    16     1      672  8 64 fname=tapelev2_16_the_main_loop_qsw0
(PID.TID 0000.0001) ADREAD:  tid,vid, irec, length, prec(x2)=    41    17     1      672  8 64 fname=tapelev2_17_the_main_loop_qsw1
(PID.TID 0000.0001) ADREAD:  tid,vid, irec, length, prec(x2)=    41    18     1      672  8 64 fname=tapelev2_18_the_main_loop_pload0
(PID.TID 0000.0001) ADREAD:  tid,vid, irec, length, prec(x2)=    41    19     1      672  8 64 fname=tapelev2_19_the_main_loop_pload1
(PID.TID 0000.0001) ADREAD:  tid,vid, irec, length, prec(x2)=    41    20     1      672  8 64 fname=tapelev2_20_the_main_loop_etah
(PID.TID 0000.0001) ADREAD:  tid,vid, irec, length, prec(x2)=    41    21     1      672  8 64 fname=tapelev2_21_the_main_loop_detahdt
(PID.TID 0000.0001) ADREAD:  tid,vid, irec, length, prec(x2)=    41    22     1      672  8 64 fname=tapelev2_22_the_main_loop_pmepr
(PID.TID 0000.0001) ADREAD:  tid,vid, irec, length, prec(x2)=    41    23     1    15456  8 64 fname=tapelev2_23_the_main_loop_gtnm1
(PID.TID 0000.0001) ADREAD:  tid,vid, irec, length, prec(x2)=    41    24     1    15456  8 64 fname=tapelev2_24_the_main_loop_gsnm1
(PID.TID 0000.0001) ADREAD:  tid,vid, irec, length, prec(x2)=    41    25     1    15456  8 64 fname=tapelev2_25_the_main_loop_gunm1
(PID.TID 0000.0001) ADREAD:  tid,vid, irec, length, prec(x2)=    41    26     1    15456  8 64 fname=tapelev2_26_the_main_loop_gvnm1
(PID.TID 0000.0001) ADREAD:  tid,vid, irec, length, prec(x2)=    41    27     1    15456  8 64 fname=tapelev2_27_the_main_loop_theta
(PID.TID 0000.0001) ADREAD:  tid,vid, irec, length, prec(x2)=    41    28     1    15456  8 64 fname=tapelev2_28_the_main_loop_salt
(PID.TID 0000.0001) ADREAD:  tid,vid, irec, length, prec(x2)=    41    29     1    15456  8 64 fname=tapelev2_29_the_main_loop_uvel
(PID.TID 0000.0001) ADREAD:  tid,vid, irec, length, prec(x2)=    41    30     1    15456  8 64 fname=tapelev2_30_the_main_loop_vvel
(PID.TID 0000.0001) ADREAD:  tid,vid, irec, length, prec(x2)=    41    31     1    15456  8 64 fname=tapelev2_31_the_main_loop_wvel
(PID.TID 0000.0001) ADREAD:  tid,vid, irec, length, prec(x2)=    41    32     1    15456  8 64 fname=tapelev2_32_the_main_loop_totphihyd
(PID.TID 0000.0001) ADREAD:  tid,vid, irec, length, prec(x2)=    41    35     1    15456  8 64 fname=tapelev2_35_the_main_loop_uveld
(PID.TID 0000.0001) ADREAD:  tid,vid, irec, length, prec(x2)=    41    36     1    15456  8 64 fname=tapelev2_36_the_main_loop_vveld
(PID.TID 0000.0001) ADREAD:  tid,vid, irec, length, prec(x2)=    41    37     1      672  8 64 fname=tapelev2_37_the_main_loop_etanm1
(PID.TID 0000.0001) ADREAD:  tid,vid, irec, length, prec(x2)=    41    38     1    15456  8 64 fname=tapelev2_38_the_main_loop_unm1
(PID.TID 0000.0001) ADREAD:  tid,vid, irec, length, prec(x2)=    41    39     1    15456  8 64 fname=tapelev2_39_the_main_loop_vnm1
(PID.TID 0000.0001) ADREAD:  tid,vid, irec, length, prec(x2)=    41    40     1      672  8 64 fname=tapelev2_40_the_main_loop_areamask0
(PID.TID 0000.0001) ADREAD:  tid,vid, irec, length, prec(x2)=    41    41     1      672  8 64 fname=tapelev2_41_the_main_loop_areamask1
(PID.TID 0000.0001) ADREAD:  tid,vid, irec, length, prec(x2)=    41    42     1      672  8 64 fname=tapelev2_42_the_main_loop_hflux0
(PID.TID 0000.0001) ADREAD:  tid,vid, irec, length, prec(x2)=    41    43     1      672  8 64 fname=tapelev2_43_the_main_loop_hflux1
(PID.TID 0000.0001) ADREAD:  tid,vid, irec, length, prec(x2)=    41    44     1      672  8 64 fname=tapelev2_44_the_main_loop_sflux0
(PID.TID 0000.0001) ADREAD:  tid,vid, irec, length, prec(x2)=    41    45     1      672  8 64 fname=tapelev2_45_the_main_loop_sflux1
(PID.TID 0000.0001) ADREAD:  tid,vid, irec, length, prec(x2)=    41    46     1      672  8 64 fname=tapelev2_46_the_main_loop_ustress0
(PID.TID 0000.0001) ADREAD:  tid,vid, irec, length, prec(x2)=    41    47     1      672  8 64 fname=tapelev2_47_the_main_loop_ustress1
(PID.TID 0000.0001) ADREAD:  tid,vid, irec, length, prec(x2)=    41    48     1      672  8 64 fname=tapelev2_48_the_main_loop_vstress0
(PID.TID 0000.0001) ADREAD:  tid,vid, irec, length, prec(x2)=    41    49     1      672  8 64 fname=tapelev2_49_the_main_loop_vstress1
(PID.TID 0000.0001) ADREAD:  tid,vid, irec, length, prec(x2)=    41    50     1      672  8 64 fname=tapelev2_50_the_main_loop_wspeed0
(PID.TID 0000.0001) ADREAD:  tid,vid, irec, length, prec(x2)=    41    51     1      672  8 64 fname=tapelev2_51_the_main_loop_wspeed1
(PID.TID 0000.0001) ADREAD:  tid,vid, irec, length, prec(x2)=    41    54     1      672  8 64 fname=tapelev2_54_the_main_loop_runoff0
(PID.TID 0000.0001) ADREAD:  tid,vid, irec, length, prec(x2)=    41    55     1      672  8 64 fname=tapelev2_55_the_main_loop_runoff1
(PID.TID 0000.0001) ADREAD:  tid,vid, irec, length, prec(x2)=    41    56     1      672  8 64 fname=tapelev2_56_the_main_loop_apressure0
(PID.TID 0000.0001) ADREAD:  tid,vid, irec, length, prec(x2)=    41    57     1      672  8 64 fname=tapelev2_57_the_main_loop_apressure1
(PID.TID 0000.0001) ADREAD:  tid,vid, irec, length, prec(x2)=    41    58     1      672  8 64 fname=tapelev2_58_the_main_loop_siceload
(PID.TID 0000.0001) ADREAD:  tid,vid, irec, length, prec(x2)=    41    59     1      672  8 64 fname=tapelev2_59_the_main_loop_climsss0
(PID.TID 0000.0001) ADREAD:  tid,vid, irec, length, prec(x2)=    41    60     1      672  8 64 fname=tapelev2_60_the_main_loop_climsss1
(PID.TID 0000.0001) ADREAD:  tid,vid, irec, length, prec(x2)=    41    61     1      672  8 64 fname=tapelev2_61_the_main_loop_climsst0
(PID.TID 0000.0001) ADREAD:  tid,vid, irec, length, prec(x2)=    41    62     1      672  8 64 fname=tapelev2_62_the_main_loop_climsst1
(PID.TID 0000.0001) ADREAD:  tid,vid, irec, length, prec(x2)=    41    63     1      672  8 64 fname=tapelev2_63_the_main_loop_saltflx0
(PID.TID 0000.0001) ADREAD:  tid,vid, irec, length, prec(x2)=    41    64     1      672  8 64 fname=tapelev2_64_the_main_loop_saltflx1
(PID.TID 0000.0001) ADREAD:  tid,vid, irec, length, prec(x2)=    41    65     1      672  8 64 fname=tapelev2_65_the_main_loop_aqh0
(PID.TID 0000.0001) ADREAD:  tid,vid, irec, length, prec(x2)=    41    66     1      672  8 64 fname=tapelev2_66_the_main_loop_aqh1
(PID.TID 0000.0001) ADREAD:  tid,vid, irec, length, prec(x2)=    41    67     1      672  8 64 fname=tapelev2_67_the_main_loop_atemp0
(PID.TID 0000.0001) ADREAD:  tid,vid, irec, length, prec(x2)=    41    68     1      672  8 64 fname=tapelev2_68_the_main_loop_atemp1
(PID.TID 0000.0001) ADREAD:  tid,vid, irec, length, prec(x2)=    41    69     1      672  8 64 fname=tapelev2_69_the_main_loop_precip0
(PID.TID 0000.0001) ADREAD:  tid,vid, irec, length, prec(x2)=    41    70     1      672  8 64 fname=tapelev2_70_the_main_loop_precip1
(PID.TID 0000.0001) ADREAD:  tid,vid, irec, length, prec(x2)=    41    73     1      672  8 64 fname=tapelev2_73_the_main_loop_snowprecip0
(PID.TID 0000.0001) ADREAD:  tid,vid, irec, length, prec(x2)=    41    74     1      672  8 64 fname=tapelev2_74_the_main_loop_snowprecip1
(PID.TID 0000.0001) ADREAD:  tid,vid, irec, length, prec(x2)=    41    75     1      672  8 64 fname=tapelev2_75_the_main_loop_swdown0
(PID.TID 0000.0001) ADREAD:  tid,vid, irec, length, prec(x2)=    41    76     1      672  8 64 fname=tapelev2_76_the_main_loop_swdown1
(PID.TID 0000.0001) ADREAD:  tid,vid, irec, length, prec(x2)=    41    77     1      672  8 64 fname=tapelev2_77_the_main_loop_lwdown0
(PID.TID 0000.0001) ADREAD:  tid,vid, irec, length, prec(x2)=    41    78     1      672  8 64 fname=tapelev2_78_the_main_loop_lwdown1
(PID.TID 0000.0001) ADREAD:  tid,vid, irec, length, prec(x2)=    41    79     1      672  8 64 fname=tapelev2_79_the_main_loop_uwind0
(PID.TID 0000.0001) ADREAD:  tid,vid, irec, length, prec(x2)=    41    80     1      672  8 64 fname=tapelev2_80_the_main_loop_uwind1
(PID.TID 0000.0001) ADREAD:  tid,vid, irec, length, prec(x2)=    41    81     1      672  8 64 fname=tapelev2_81_the_main_loop_vwind0
(PID.TID 0000.0001) ADREAD:  tid,vid, irec, length, prec(x2)=    41    82     1      672  8 64 fname=tapelev2_82_the_main_loop_vwind1
(PID.TID 0000.0001) ADREAD:  tid,vid, irec, length, prec(x2)=    41    83     1     6048  8 64 fname=tapelev2_83_the_main_loop_xx_gentim2d
(PID.TID 0000.0001) ADREAD:  tid,vid, irec, length, prec(x2)=    41    84     1     6048  8 64 fname=tapelev2_84_the_main_loop_xx_gentim2d0
(PID.TID 0000.0001) ADREAD:  tid,vid, irec, length, prec(x2)=    41    85     1     6048  8 64 fname=tapelev2_85_the_main_loop_xx_gentim2d1
(PID.TID 0000.0001) ADREAD:  tid,vid, irec, length, prec(x2)=    41    87     1      672  8 64 fname=tapelev2_87_the_main_loop_phihydlow
(PID.TID 0000.0001) ADREAD:  tid,vid, irec, length, prec(x2)=    41    88     1      672  8 64 fname=tapelev2_88_the_main_loop_area
(PID.TID 0000.0001) ADREAD:  tid,vid, irec, length, prec(x2)=    41    89     1      672  8 64 fname=tapelev2_89_the_main_loop_heff
(PID.TID 0000.0001) ADREAD:  tid,vid, irec, length, prec(x2)=    41    90     1      672  8 64 fname=tapelev2_90_the_main_loop_hsnow
(PID.TID 0000.0001) ADREAD:  tid,vid, irec, length, prec(x2)=    41    92     1      672  8 64 fname=tapelev2_92_the_main_loop_uice
(PID.TID 0000.0001) ADREAD:  tid,vid, irec, length, prec(x2)=    41    93     1      672  8 64 fname=tapelev2_93_the_main_loop_vice
(PID.TID 0000.0001) ADREAD:  tid,vid, irec, length, prec(x2)=    41    96     1     4704  8 64 fname=tapelev2_96_the_main_loop_tices
(PID.TID 0000.0001) ADREAD:  tid,vid, irec, length, prec(x2)=    41    97     1      672  8 64 fname=tapelev2_97_the_main_loop_dwatn
(PID.TID 0000.0001) ADREAD:  tid,vid, irec, length, prec(x2)=    41    98     1      672  8 64 fname=tapelev2_98_the_main_loop_stressdivergencex
(PID.TID 0000.0001) ADREAD:  tid,vid, irec, length, prec(x2)=    41    99     1      672  8 64 fname=tapelev2_99_the_main_loop_stressdivergencey
(PID.TID 0000.0001) ADREAD:  tid,vid, irec, length, prec(x2)=    41   100     1      672  8 64 fname=tapelev2_100_the_main_loop_seaice_sigma1
(PID.TID 0000.0001) ADREAD:  tid,vid, irec, length, prec(x2)=    41   101     1      672  8 64 fname=tapelev2_101_the_main_loop_seaice_sigma2
(PID.TID 0000.0001) ADREAD:  tid,vid, irec, length, prec(x2)=    41   102     1      672  8 64 fname=tapelev2_102_the_main_loop_seaice_sigma12
(PID.TID 0000.0001) ADREAD:  tid,vid, irec, length, prec(x2)=    41   103     1      672  8 64 fname=tapelev2_103_the_main_loop_hsalt
(PID.TID 0000.0001)  MDS_READ_FIELD: opening global file: xx_atemp.effective.0000000001.data
(PID.TID 0000.0001) EXF_SET_FLD: processing field "climsss",  file: SSS_monthly.labsea1979
(PID.TID 0000.0001) EXF_SET_FLD:   myIter, count0, count1:         4      1      2
(PID.TID 0000.0001) EXF_SET_FLD:   first, changed, fac:   F   F    0.49453551912568305
(PID.TID 0000.0001) EXF_SET_FLD: processing field "uwind",  file: u10m.labsea1979
(PID.TID 0000.0001) EXF_SET_FLD:   myIter, count0, count1:         4      1      2
(PID.TID 0000.0001) EXF_SET_FLD:   first, changed, fac:   F   F    0.49453551912568305
(PID.TID 0000.0001) EXF_SET_FLD: processing field "vwind",  file: v10m.labsea1979
(PID.TID 0000.0001) EXF_SET_FLD:   myIter, count0, count1:         4      1      2
(PID.TID 0000.0001) EXF_SET_FLD:   first, changed, fac:   F   F    0.49453551912568305
(PID.TID 0000.0001) EXF_SET_FLD: processing field "atemp",  file: tair.labsea1979
(PID.TID 0000.0001) EXF_SET_FLD:   myIter, count0, count1:         4      1      2
(PID.TID 0000.0001) EXF_SET_FLD:   first, changed, fac:   F   F    0.49453551912568305
(PID.TID 0000.0001) EXF_SET_FLD: processing field "aqh",  file: qa.labsea1979
(PID.TID 0000.0001) EXF_SET_FLD:   myIter, count0, count1:         4      1      2
(PID.TID 0000.0001) EXF_SET_FLD:   first, changed, fac:   F   F    0.49453551912568305
(PID.TID 0000.0001) EXF_SET_FLD: processing field "precip",  file: prate.labsea1979
(PID.TID 0000.0001) EXF_SET_FLD:   myIter, count0, count1:         4      1      2
(PID.TID 0000.0001) EXF_SET_FLD:   first, changed, fac:   F   F    0.49453551912568305
(PID.TID 0000.0001) EXF_SET_FLD: processing field "swdown",  file: fsh.labsea1979
(PID.TID 0000.0001) EXF_SET_FLD:   myIter, count0, count1:         4      1      2
(PID.TID 0000.0001) EXF_SET_FLD:   first, changed, fac:   F   F    0.49453551912568305
(PID.TID 0000.0001) EXF_SET_FLD: processing field "lwdown",  file: flo.labsea1979
(PID.TID 0000.0001) EXF_SET_FLD:   myIter, count0, count1:         4      1      2
(PID.TID 0000.0001) EXF_SET_FLD:   first, changed, fac:   F   F    0.49453551912568305
DEBUG_STATS_RL:    cg2d_b (SOLVE_FOR_PRESSURE)  min= -7.47095948274198E+03
DEBUG_STATS_RL:    cg2d_b (SOLVE_FOR_PRESSURE)  max=  2.18029189648793E+03
DEBUG_STATS_RL:    cg2d_b (SOLVE_FOR_PRESSURE) mean=  3.74787608355594E-13
DEBUG_STATS_RL:    cg2d_b (SOLVE_FOR_PRESSURE) S.D.=  9.11464014140524E+02
 cg2d: Sum(rhs),rhsMax =   5.26662047306559E-15  1.20244643428826E+00
DEBUG_STATS_RL:    cg2d_x (SOLVE_FOR_PRESSURE)  min= -1.27317826454390E+00
DEBUG_STATS_RL:    cg2d_x (SOLVE_FOR_PRESSURE)  max=  3.19622316797689E+00
DEBUG_STATS_RL:    cg2d_x (SOLVE_FOR_PRESSURE) mean= -2.95294169356676E-02
DEBUG_STATS_RL:    cg2d_x (SOLVE_FOR_PRESSURE) S.D.=  7.40273720372922E-01
(PID.TID 0000.0001)  MDS_READ_FIELD: opening global file: xx_atemp.effective.0000000001.data
(PID.TID 0000.0001) EXF_SET_FLD: processing field "climsss",  file: SSS_monthly.labsea1979
(PID.TID 0000.0001) EXF_SET_FLD:   myIter, count0, count1:         5      1      2
(PID.TID 0000.0001) EXF_SET_FLD:   first, changed, fac:   F   F    0.49316939890710387
(PID.TID 0000.0001) EXF_SET_FLD: processing field "uwind",  file: u10m.labsea1979
(PID.TID 0000.0001) EXF_SET_FLD:   myIter, count0, count1:         5      1      2
(PID.TID 0000.0001) EXF_SET_FLD:   first, changed, fac:   F   F    0.49316939890710387
(PID.TID 0000.0001) EXF_SET_FLD: processing field "vwind",  file: v10m.labsea1979
(PID.TID 0000.0001) EXF_SET_FLD:   myIter, count0, count1:         5      1      2
(PID.TID 0000.0001) EXF_SET_FLD:   first, changed, fac:   F   F    0.49316939890710387
(PID.TID 0000.0001) EXF_SET_FLD: processing field "atemp",  file: tair.labsea1979
(PID.TID 0000.0001) EXF_SET_FLD:   myIter, count0, count1:         5      1      2
(PID.TID 0000.0001) EXF_SET_FLD:   first, changed, fac:   F   F    0.49316939890710387
(PID.TID 0000.0001) EXF_SET_FLD: processing field "aqh",  file: qa.labsea1979
(PID.TID 0000.0001) EXF_SET_FLD:   myIter, count0, count1:         5      1      2
(PID.TID 0000.0001) EXF_SET_FLD:   first, changed, fac:   F   F    0.49316939890710387
(PID.TID 0000.0001) EXF_SET_FLD: processing field "precip",  file: prate.labsea1979
(PID.TID 0000.0001) EXF_SET_FLD:   myIter, count0, count1:         5      1      2
(PID.TID 0000.0001) EXF_SET_FLD:   first, changed, fac:   F   F    0.49316939890710387
(PID.TID 0000.0001) EXF_SET_FLD: processing field "swdown",  file: fsh.labsea1979
(PID.TID 0000.0001) EXF_SET_FLD:   myIter, count0, count1:         5      1      2
(PID.TID 0000.0001) EXF_SET_FLD:   first, changed, fac:   F   F    0.49316939890710387
(PID.TID 0000.0001) EXF_SET_FLD: processing field "lwdown",  file: flo.labsea1979
(PID.TID 0000.0001) EXF_SET_FLD:   myIter, count0, count1:         5      1      2
(PID.TID 0000.0001) EXF_SET_FLD:   first, changed, fac:   F   F    0.49316939890710387
DEBUG_STATS_RL:    cg2d_b (SOLVE_FOR_PRESSURE)  min= -7.45833771571459E+03
DEBUG_STATS_RL:    cg2d_b (SOLVE_FOR_PRESSURE)  max=  2.17494903027769E+03
DEBUG_STATS_RL:    cg2d_b (SOLVE_FOR_PRESSURE) mean=  4.18935997004155E-13
DEBUG_STATS_RL:    cg2d_b (SOLVE_FOR_PRESSURE) S.D.=  9.06377010650268E+02
 cg2d: Sum(rhs),rhsMax =   8.29197821516914E-15  1.20041496847834E+00
DEBUG_STATS_RL:    cg2d_x (SOLVE_FOR_PRESSURE)  min= -1.23196163368130E+00
DEBUG_STATS_RL:    cg2d_x (SOLVE_FOR_PRESSURE)  max=  3.23727429689848E+00
DEBUG_STATS_RL:    cg2d_x (SOLVE_FOR_PRESSURE) mean= -3.45194761148230E-02
DEBUG_STATS_RL:    cg2d_x (SOLVE_FOR_PRESSURE) S.D.=  7.10912240392561E-01
(PID.TID 0000.0001) S/R ADAUTODIFF_INADMODE_SET: useKPP    =    T
(PID.TID 0000.0001) S/R ADAUTODIFF_INADMODE_SET: useGMRedi =    T
(PID.TID 0000.0001) S/R ADAUTODIFF_INADMODE_SET: useSEAICE =    T
(PID.TID 0000.0001) S/R ADAUTODIFF_INADMODE_SET: useGGL90    =    F
(PID.TID 0000.0001) S/R ADAUTODIFF_INADMODE_SET: useSALT_PLUME    =    F
(PID.TID 0000.0001) S/R ADAUTODIFF_INADMODE_SET: viscFacAdj = 1.00000000000000E+00
(PID.TID 0000.0001) // =======================================================
(PID.TID 0000.0001) // Begin AD_MONITOR dynamic field statistics
(PID.TID 0000.0001) // =======================================================
(PID.TID 0000.0001) %MON ad_time_tsnumber             =                     6
(PID.TID 0000.0001) %MON ad_time_secondsf             =   2.1600000000000E+04
(PID.TID 0000.0001) %MON ad_dynstat_adeta_max         =   1.1406508488298E+02
(PID.TID 0000.0001) %MON ad_dynstat_adeta_min         =  -1.3475144376757E+02
(PID.TID 0000.0001) %MON ad_dynstat_adeta_mean        =   3.5331575631621E-02
(PID.TID 0000.0001) %MON ad_dynstat_adeta_sd          =   1.9165085591752E+01
(PID.TID 0000.0001) %MON ad_dynstat_adeta_del2        =   5.5626535638585E+00
(PID.TID 0000.0001) %MON ad_dynstat_aduvel_max        =   7.3774179261711E+03
(PID.TID 0000.0001) %MON ad_dynstat_aduvel_min        =  -4.3241906993063E+03
(PID.TID 0000.0001) %MON ad_dynstat_aduvel_mean       =   6.4944565373138E-03
(PID.TID 0000.0001) %MON ad_dynstat_aduvel_sd         =   8.0426307288303E+01
(PID.TID 0000.0001) %MON ad_dynstat_aduvel_del2       =   1.7620240122130E+01
(PID.TID 0000.0001) %MON ad_dynstat_advvel_max        =   7.1009626705889E+03
(PID.TID 0000.0001) %MON ad_dynstat_advvel_min        =  -4.5066305258465E+03
(PID.TID 0000.0001) %MON ad_dynstat_advvel_mean       =   1.9246165616737E+00
(PID.TID 0000.0001) %MON ad_dynstat_advvel_sd         =   9.0367204930810E+01
(PID.TID 0000.0001) %MON ad_dynstat_advvel_del2       =   2.3863106082002E+01
(PID.TID 0000.0001) %MON ad_dynstat_adwvel_max        =   5.0371205232102E+03
(PID.TID 0000.0001) %MON ad_dynstat_adwvel_min        =  -5.4295395523077E+03
(PID.TID 0000.0001) %MON ad_dynstat_adwvel_mean       =   4.9102103184155E-02
(PID.TID 0000.0001) %MON ad_dynstat_adwvel_sd         =   6.5847102546921E+01
(PID.TID 0000.0001) %MON ad_dynstat_adwvel_del2       =   1.1839381342240E+01
(PID.TID 0000.0001) %MON ad_dynstat_adtheta_max       =   9.3336589241262E+01
(PID.TID 0000.0001) %MON ad_dynstat_adtheta_min       =  -5.6142631829159E+01
(PID.TID 0000.0001) %MON ad_dynstat_adtheta_mean      =  -3.4337573929879E-02
(PID.TID 0000.0001) %MON ad_dynstat_adtheta_sd        =   1.0980676330978E+00
(PID.TID 0000.0001) %MON ad_dynstat_adtheta_del2      =   2.2056386590664E-01
(PID.TID 0000.0001) %MON ad_dynstat_adsalt_max        =   2.0274555310223E+00
(PID.TID 0000.0001) %MON ad_dynstat_adsalt_min        =  -2.5875671652373E+00
(PID.TID 0000.0001) %MON ad_dynstat_adsalt_mean       =   8.4313287382016E-03
(PID.TID 0000.0001) %MON ad_dynstat_adsalt_sd         =   6.0900383376804E-01
(PID.TID 0000.0001) %MON ad_dynstat_adsalt_del2       =   1.6002295316350E-02
(PID.TID 0000.0001) %MON ad_dynstat_adsst_max         =   9.3336589241262E+01
(PID.TID 0000.0001) %MON ad_dynstat_adsst_min         =  -5.6142631829159E+01
(PID.TID 0000.0001) %MON ad_dynstat_adsst_mean        =  -4.8179202501274E+00
(PID.TID 0000.0001) %MON ad_dynstat_adsst_sd          =   1.2445618384918E+01
(PID.TID 0000.0001) %MON ad_dynstat_adsst_del2        =   2.7348103363525E+00
(PID.TID 0000.0001) %MON ad_dynstat_adsss_max         =   8.0206104260834E-02
(PID.TID 0000.0001) %MON ad_dynstat_adsss_min         =  -1.2329503254052E-01
(PID.TID 0000.0001) %MON ad_dynstat_adsss_mean        =  -4.9060475955046E-03
(PID.TID 0000.0001) %MON ad_dynstat_adsss_sd          =   2.5877700054685E-02
(PID.TID 0000.0001) %MON ad_dynstat_adsss_del2        =   4.8425249822372E-03
(PID.TID 0000.0001) // =======================================================
(PID.TID 0000.0001) // End AD_MONITOR dynamic field statistics
(PID.TID 0000.0001) // =======================================================
(PID.TID 0000.0001) // =======================================================
(PID.TID 0000.0001) // Begin AD_MONITOR SEAICE statistics
(PID.TID 0000.0001) // =======================================================
(PID.TID 0000.0001) %MON ad_seaice_tsnumber           =                     6
(PID.TID 0000.0001) %MON ad_seaice_time_sec           =   2.1600000000000E+04
(PID.TID 0000.0001) %MON ad_seaice_aduice_max         =   2.2937252853900E+06
(PID.TID 0000.0001) %MON ad_seaice_aduice_min         =  -2.2499708990293E+06
(PID.TID 0000.0001) %MON ad_seaice_aduice_mean        =   3.6435639282597E+00
(PID.TID 0000.0001) %MON ad_seaice_aduice_sd          =   3.1002016165707E+05
(PID.TID 0000.0001) %MON ad_seaice_aduice_del2        =   1.0022809811872E+05
(PID.TID 0000.0001) %MON ad_seaice_advice_max         =   5.6621843053845E+05
(PID.TID 0000.0001) %MON ad_seaice_advice_min         =  -5.0615795719071E+05
(PID.TID 0000.0001) %MON ad_seaice_advice_mean        =  -4.0280263909144E+02
(PID.TID 0000.0001) %MON ad_seaice_advice_sd          =   8.1143152704305E+04
(PID.TID 0000.0001) %MON ad_seaice_advice_del2        =   2.4287743260643E+04
(PID.TID 0000.0001) %MON ad_seaice_adarea_max         =   7.1219090141103E+04
(PID.TID 0000.0001) %MON ad_seaice_adarea_min         =  -9.3145629850285E+04
(PID.TID 0000.0001) %MON ad_seaice_adarea_mean        =  -2.5512145986349E+02
(PID.TID 0000.0001) %MON ad_seaice_adarea_sd          =   1.0663722059044E+04
(PID.TID 0000.0001) %MON ad_seaice_adarea_del2        =   2.5750589559171E+03
(PID.TID 0000.0001) %MON ad_seaice_adheff_max         =   4.7442114744181E+04
(PID.TID 0000.0001) %MON ad_seaice_adheff_min         =  -2.8976545977230E+04
(PID.TID 0000.0001) %MON ad_seaice_adheff_mean        =   1.9252709739462E+02
(PID.TID 0000.0001) %MON ad_seaice_adheff_sd          =   5.0233757350315E+03
(PID.TID 0000.0001) %MON ad_seaice_adheff_del2        =   1.1867766728365E+03
(PID.TID 0000.0001) %MON ad_seaice_adhsnow_max        =   1.8647136856073E+02
(PID.TID 0000.0001) %MON ad_seaice_adhsnow_min        =  -3.1273230588341E+02
(PID.TID 0000.0001) %MON ad_seaice_adhsnow_mean       =   1.3282786672347E+01
(PID.TID 0000.0001) %MON ad_seaice_adhsnow_sd         =   3.9695931880091E+01
(PID.TID 0000.0001) %MON ad_seaice_adhsnow_del2       =   9.1037428845634E+00
(PID.TID 0000.0001) %MON ad_seaice_adhsalt_max        =   2.6156575087337E-06
(PID.TID 0000.0001) %MON ad_seaice_adhsalt_min        =  -3.5994899051122E-04
(PID.TID 0000.0001) %MON ad_seaice_adhsalt_mean       =  -7.3099293537468E-05
(PID.TID 0000.0001) %MON ad_seaice_adhsalt_sd         =   1.0432144831435E-04
(PID.TID 0000.0001) %MON ad_seaice_adhsalt_del2       =   6.1149690681277E-06
(PID.TID 0000.0001) // =======================================================
(PID.TID 0000.0001) // End AD_MONITOR SEAICE statistics
(PID.TID 0000.0001) // =======================================================
(PID.TID 0000.0001)  MDS_WRITE_FIELD: it,rec,kS,kL,kH=       6     1   1   1   1 file=ADJetan.0000000006
 Calling cg2d from S/R CG2D_MAD
 cg2d: Sum(rhs),rhsMax =   5.81547410596385E-16  6.69604188885099E-02
(PID.TID 0000.0001)       CG2D_MAD cg2d_init_res =   1.30420430634874E+00
(PID.TID 0000.0001)      CG2D_MAD: cg2d_iters(min,last) =      -1      45
(PID.TID 0000.0001)      CG2D_MAD: cg2d_last_res =   5.52866200082778E-14
(PID.TID 0000.0001)  MDS_WRITE_FIELD: it,rec,kS,kL,kH=       5     1   1   1   1 file=ADJtaux.0000000005
(PID.TID 0000.0001)  MDS_WRITE_FIELD: it,rec,kS,kL,kH=       5     1   1   1   1 file=ADJtauy.0000000005
(PID.TID 0000.0001)  MDS_WRITE_FIELD: it,rec,kS,kL,kH=       5     1   1   1   1 file=ADJqnet.0000000005
(PID.TID 0000.0001)  MDS_WRITE_FIELD: it,rec,kS,kL,kH=       5     1   1   1   1 file=ADJempr.0000000005
(PID.TID 0000.0001)  MDS_WRITE_FIELD: it,rec,kS,kL,kH=       5     1   1   1   1 file=ADJqsw.0000000005
(PID.TID 0000.0001)  MDS_WRITE_FIELD: it,rec,kS,kL,kH=       5     1  23   1  23 file=ADJtheta.0000000005
(PID.TID 0000.0001)  MDS_WRITE_FIELD: it,rec,kS,kL,kH=       5     1  23   1  23 file=ADJsalt.0000000005
(PID.TID 0000.0001)  MDS_WRITE_FIELD: it,rec,kS,kL,kH=       5     1  23   1  23 file=ADJwvel.0000000005
(PID.TID 0000.0001)  MDS_WRITE_FIELD: it,rec,kS,kL,kH=       5     1  23   1  23 file=ADJuvel.0000000005
(PID.TID 0000.0001)  MDS_WRITE_FIELD: it,rec,kS,kL,kH=       5     1  23   1  23 file=ADJvvel.0000000005
(PID.TID 0000.0001)  MDS_WRITE_FIELD: it,rec,kS,kL,kH=       5     1   1   1   1 file=ADJarea.0000000005
(PID.TID 0000.0001)  MDS_WRITE_FIELD: it,rec,kS,kL,kH=       5     1   1   1   1 file=ADJheff.0000000005
(PID.TID 0000.0001)  MDS_WRITE_FIELD: it,rec,kS,kL,kH=       5     1   1   1   1 file=ADJhsnow.0000000005
(PID.TID 0000.0001)  MDS_WRITE_FIELD: it,rec,kS,kL,kH=       5     1   1   1   1 file=ADJuice.0000000005
(PID.TID 0000.0001)  MDS_WRITE_FIELD: it,rec,kS,kL,kH=       5     1   1   1   1 file=ADJvice.0000000005
(PID.TID 0000.0001)  MDS_WRITE_FIELD: it,rec,kS,kL,kH=       5     1   1   1   1 file=ADJustress.0000000005
(PID.TID 0000.0001)  MDS_WRITE_FIELD: it,rec,kS,kL,kH=       5     1   1   1   1 file=ADJvstress.0000000005
(PID.TID 0000.0001)  MDS_WRITE_FIELD: it,rec,kS,kL,kH=       5     1   1   1   1 file=ADJhflux.0000000005
(PID.TID 0000.0001)  MDS_WRITE_FIELD: it,rec,kS,kL,kH=       5     1   1   1   1 file=ADJsflux.0000000005
(PID.TID 0000.0001)  MDS_WRITE_FIELD: it,rec,kS,kL,kH=       5     1   1   1   1 file=ADJatemp.0000000005
(PID.TID 0000.0001)  MDS_WRITE_FIELD: it,rec,kS,kL,kH=       5     1   1   1   1 file=ADJaqh.0000000005
(PID.TID 0000.0001)  MDS_WRITE_FIELD: it,rec,kS,kL,kH=       5     1   1   1   1 file=ADJprecip.0000000005
(PID.TID 0000.0001)  MDS_WRITE_FIELD: it,rec,kS,kL,kH=       5     1   1   1   1 file=ADJrunoff.0000000005
(PID.TID 0000.0001)  MDS_WRITE_FIELD: it,rec,kS,kL,kH=       5     1   1   1   1 file=ADJuwind.0000000005
(PID.TID 0000.0001)  MDS_WRITE_FIELD: it,rec,kS,kL,kH=       5     1   1   1   1 file=ADJvwind.0000000005
(PID.TID 0000.0001)  MDS_WRITE_FIELD: it,rec,kS,kL,kH=       5     1   1   1   1 file=ADJswdown.0000000005
(PID.TID 0000.0001)  MDS_WRITE_FIELD: it,rec,kS,kL,kH=       5     1   1   1   1 file=ADJlwdown.0000000005
(PID.TID 0000.0001)  MDS_WRITE_FIELD: it,rec,kS,kL,kH=       5     1   1   1   1 file=ADJclimsst.0000000005
(PID.TID 0000.0001)  MDS_WRITE_FIELD: it,rec,kS,kL,kH=       5     1   1   1   1 file=ADJclimsss.0000000005
(PID.TID 0000.0001)  MDS_READ_FIELD: opening global file: adxx_atemp.effective.0000000001.data
(PID.TID 0000.0001)  MDS_WRITE_FIELD: it,rec,kS,kL,kH=       1    -7  23   1   1 file=adxx_atemp.effective.0000000001
(PID.TID 0000.0001) S/R ADAUTODIFF_INADMODE_UNSET: useKPP    =    T
(PID.TID 0000.0001) S/R ADAUTODIFF_INADMODE_UNSET: useGMRedi =    T
(PID.TID 0000.0001) S/R ADAUTODIFF_INADMODE_UNSET: useSEAICE =    T
(PID.TID 0000.0001) S/R ADAUTODIFF_INADMODE_UNSET: useGGL90    =    F
(PID.TID 0000.0001) S/R ADAUTODIFF_INADMODE_UNSET: useSALT_PLUME    =    F
(PID.TID 0000.0001) S/R ADAUTODIFF_INADMODE_UNSET: viscFacAdj = 1.00000000000000E+00
(PID.TID 0000.0001)  MDS_READ_FIELD: opening global file: adm_sst_step.0000000001.data
(PID.TID 0000.0001)  MDS_WRITE_FIELD: it,rec,kS,kL,kH=       1    -6  23   1   1 file=adm_sst_step.0000000001
(PID.TID 0000.0001) S/R ADAUTODIFF_INADMODE_SET: useKPP    =    T
(PID.TID 0000.0001) S/R ADAUTODIFF_INADMODE_SET: useGMRedi =    T
(PID.TID 0000.0001) S/R ADAUTODIFF_INADMODE_SET: useSEAICE =    T
(PID.TID 0000.0001) S/R ADAUTODIFF_INADMODE_SET: useGGL90    =    F
(PID.TID 0000.0001) S/R ADAUTODIFF_INADMODE_SET: useSALT_PLUME    =    F
(PID.TID 0000.0001) S/R ADAUTODIFF_INADMODE_SET: viscFacAdj = 1.00000000000000E+00
(PID.TID 0000.0001) // =======================================================
(PID.TID 0000.0001) // Begin AD_MONITOR dynamic field statistics
(PID.TID 0000.0001) // =======================================================
(PID.TID 0000.0001) %MON ad_time_tsnumber             =                     5
(PID.TID 0000.0001) %MON ad_time_secondsf             =   1.8000000000000E+04
(PID.TID 0000.0001) %MON ad_dynstat_adeta_max         =   7.6638302394038E+03
(PID.TID 0000.0001) %MON ad_dynstat_adeta_min         =  -1.4217678314568E+04
(PID.TID 0000.0001) %MON ad_dynstat_adeta_mean        =  -2.3400009546538E+00
(PID.TID 0000.0001) %MON ad_dynstat_adeta_sd          =   1.9228024749852E+03
(PID.TID 0000.0001) %MON ad_dynstat_adeta_del2        =   4.4322997685940E+02
(PID.TID 0000.0001) %MON ad_dynstat_aduvel_max        =   4.4998235090766E+05
(PID.TID 0000.0001) %MON ad_dynstat_aduvel_min        =  -3.5437219822451E+05
(PID.TID 0000.0001) %MON ad_dynstat_aduvel_mean       =   2.0992566569820E+01
(PID.TID 0000.0001) %MON ad_dynstat_aduvel_sd         =   6.7646750483369E+03
(PID.TID 0000.0001) %MON ad_dynstat_aduvel_del2       =   1.2021774047570E+03
(PID.TID 0000.0001) %MON ad_dynstat_advvel_max        =   6.1109615742559E+05
(PID.TID 0000.0001) %MON ad_dynstat_advvel_min        =  -6.9919934906393E+05
(PID.TID 0000.0001) %MON ad_dynstat_advvel_mean       =   4.7850136741943E+00
(PID.TID 0000.0001) %MON ad_dynstat_advvel_sd         =   1.0208134092040E+04
(PID.TID 0000.0001) %MON ad_dynstat_advvel_del2       =   2.0333534677258E+03
(PID.TID 0000.0001) %MON ad_dynstat_adwvel_max        =   2.2729291025676E+05
(PID.TID 0000.0001) %MON ad_dynstat_adwvel_min        =  -3.2899370443281E+05
(PID.TID 0000.0001) %MON ad_dynstat_adwvel_mean       =   2.9201515466359E+00
(PID.TID 0000.0001) %MON ad_dynstat_adwvel_sd         =   3.5155269880321E+03
(PID.TID 0000.0001) %MON ad_dynstat_adwvel_del2       =   7.2726793435018E+02
(PID.TID 0000.0001) %MON ad_dynstat_adtheta_max       =   2.7945198464585E+03
(PID.TID 0000.0001) %MON ad_dynstat_adtheta_min       =  -4.5284182726961E+03
(PID.TID 0000.0001) %MON ad_dynstat_adtheta_mean      =  -1.2516460743779E-01
(PID.TID 0000.0001) %MON ad_dynstat_adtheta_sd        =   3.9941086778733E+01
(PID.TID 0000.0001) %MON ad_dynstat_adtheta_del2      =   9.1705371011311E+00
(PID.TID 0000.0001) %MON ad_dynstat_adsalt_max        =   2.1924254666494E+02
(PID.TID 0000.0001) %MON ad_dynstat_adsalt_min        =  -3.4207111251608E+02
(PID.TID 0000.0001) %MON ad_dynstat_adsalt_mean       =  -4.6515748502174E-02
(PID.TID 0000.0001) %MON ad_dynstat_adsalt_sd         =   3.9770763917052E+01
(PID.TID 0000.0001) %MON ad_dynstat_adsalt_del2       =   1.8799401987762E+00
(PID.TID 0000.0001) %MON ad_dynstat_adsst_max         =   2.7945198464585E+03
(PID.TID 0000.0001) %MON ad_dynstat_adsst_min         =  -4.5284182726961E+03
(PID.TID 0000.0001) %MON ad_dynstat_adsst_mean        =  -1.9543070031106E+01
(PID.TID 0000.0001) %MON ad_dynstat_adsst_sd          =   4.8065174737933E+02
(PID.TID 0000.0001) %MON ad_dynstat_adsst_del2        =   1.1366020219628E+02
(PID.TID 0000.0001) %MON ad_dynstat_adsss_max         =   6.1140413760845E+00
(PID.TID 0000.0001) %MON ad_dynstat_adsss_min         =  -1.1763115433599E+01
(PID.TID 0000.0001) %MON ad_dynstat_adsss_mean        =  -6.3520918874375E-03
(PID.TID 0000.0001) %MON ad_dynstat_adsss_sd          =   1.4404361983818E+00
(PID.TID 0000.0001) %MON ad_dynstat_adsss_del2        =   4.4289521842896E-01
(PID.TID 0000.0001) // =======================================================
(PID.TID 0000.0001) // End AD_MONITOR dynamic field statistics
(PID.TID 0000.0001) // =======================================================
(PID.TID 0000.0001) // =======================================================
(PID.TID 0000.0001) // Begin AD_MONITOR SEAICE statistics
(PID.TID 0000.0001) // =======================================================
(PID.TID 0000.0001) %MON ad_seaice_tsnumber           =                     5
(PID.TID 0000.0001) %MON ad_seaice_time_sec           =   1.8000000000000E+04
(PID.TID 0000.0001) %MON ad_seaice_aduice_max         =   5.3432995792540E+07
(PID.TID 0000.0001) %MON ad_seaice_aduice_min         =  -5.0620506351709E+07
(PID.TID 0000.0001) %MON ad_seaice_aduice_mean        =  -3.8142216627634E+03
(PID.TID 0000.0001) %MON ad_seaice_aduice_sd          =   7.2300927974137E+06
(PID.TID 0000.0001) %MON ad_seaice_aduice_del2        =   2.2686035070468E+06
(PID.TID 0000.0001) %MON ad_seaice_advice_max         =   4.8364898977322E+07
(PID.TID 0000.0001) %MON ad_seaice_advice_min         =  -5.5030915209389E+07
(PID.TID 0000.0001) %MON ad_seaice_advice_mean        =  -4.9063843185891E+04
(PID.TID 0000.0001) %MON ad_seaice_advice_sd          =   7.4511713923819E+06
(PID.TID 0000.0001) %MON ad_seaice_advice_del2        =   2.3659456836593E+06
(PID.TID 0000.0001) %MON ad_seaice_adarea_max         =   3.4591139138092E+06
(PID.TID 0000.0001) %MON ad_seaice_adarea_min         =  -1.2125009922863E+07
(PID.TID 0000.0001) %MON ad_seaice_adarea_mean        =  -6.4988310032173E+04
(PID.TID 0000.0001) %MON ad_seaice_adarea_sd          =   1.1913543661938E+06
(PID.TID 0000.0001) %MON ad_seaice_adarea_del2        =   3.1328634502634E+05
(PID.TID 0000.0001) %MON ad_seaice_adheff_max         =   1.3327659011427E+06
(PID.TID 0000.0001) %MON ad_seaice_adheff_min         =  -8.0009830191443E+06
(PID.TID 0000.0001) %MON ad_seaice_adheff_mean        =  -5.2576175493961E+04
(PID.TID 0000.0001) %MON ad_seaice_adheff_sd          =   7.3766220115444E+05
(PID.TID 0000.0001) %MON ad_seaice_adheff_del2        =   1.9193854295168E+05
(PID.TID 0000.0001) %MON ad_seaice_adhsnow_max        =   1.5144773116911E+04
(PID.TID 0000.0001) %MON ad_seaice_adhsnow_min        =  -9.2873215406011E+03
(PID.TID 0000.0001) %MON ad_seaice_adhsnow_mean       =   6.3165102304129E+01
(PID.TID 0000.0001) %MON ad_seaice_adhsnow_sd         =   1.6056605620864E+03
(PID.TID 0000.0001) %MON ad_seaice_adhsnow_del2       =   3.7939472901302E+02
(PID.TID 0000.0001) %MON ad_seaice_adhsalt_max        =   3.5588093069048E-06
(PID.TID 0000.0001) %MON ad_seaice_adhsalt_min        =  -3.4146573493976E-04
(PID.TID 0000.0001) %MON ad_seaice_adhsalt_mean       =  -6.8908192455385E-05
(PID.TID 0000.0001) %MON ad_seaice_adhsalt_sd         =   9.8632386027742E-05
(PID.TID 0000.0001) %MON ad_seaice_adhsalt_del2       =   6.6854728298841E-06
(PID.TID 0000.0001) // =======================================================
(PID.TID 0000.0001) // End AD_MONITOR SEAICE statistics
(PID.TID 0000.0001) // =======================================================
(PID.TID 0000.0001)  MDS_WRITE_FIELD: it,rec,kS,kL,kH=       5     1   1   1   1 file=ADJetan.0000000005
 Calling cg2d from S/R CG2D_MAD
 cg2d: Sum(rhs),rhsMax =   2.61367474226602E-16  4.79979394961443E+00
(PID.TID 0000.0001)       CG2D_MAD cg2d_init_res =   1.42087327561970E+00
(PID.TID 0000.0001)      CG2D_MAD: cg2d_iters(min,last) =      -1      46
(PID.TID 0000.0001)      CG2D_MAD: cg2d_last_res =   3.49930011492107E-14
(PID.TID 0000.0001)  MDS_WRITE_FIELD: it,rec,kS,kL,kH=       4     1   1   1   1 file=ADJtaux.0000000004
(PID.TID 0000.0001)  MDS_WRITE_FIELD: it,rec,kS,kL,kH=       4     1   1   1   1 file=ADJtauy.0000000004
(PID.TID 0000.0001)  MDS_WRITE_FIELD: it,rec,kS,kL,kH=       4     1   1   1   1 file=ADJqnet.0000000004
(PID.TID 0000.0001)  MDS_WRITE_FIELD: it,rec,kS,kL,kH=       4     1   1   1   1 file=ADJempr.0000000004
(PID.TID 0000.0001)  MDS_WRITE_FIELD: it,rec,kS,kL,kH=       4     1   1   1   1 file=ADJqsw.0000000004
(PID.TID 0000.0001)  MDS_WRITE_FIELD: it,rec,kS,kL,kH=       4     1  23   1  23 file=ADJtheta.0000000004
(PID.TID 0000.0001)  MDS_WRITE_FIELD: it,rec,kS,kL,kH=       4     1  23   1  23 file=ADJsalt.0000000004
(PID.TID 0000.0001)  MDS_WRITE_FIELD: it,rec,kS,kL,kH=       4     1  23   1  23 file=ADJwvel.0000000004
(PID.TID 0000.0001)  MDS_WRITE_FIELD: it,rec,kS,kL,kH=       4     1  23   1  23 file=ADJuvel.0000000004
(PID.TID 0000.0001)  MDS_WRITE_FIELD: it,rec,kS,kL,kH=       4     1  23   1  23 file=ADJvvel.0000000004
(PID.TID 0000.0001)  MDS_WRITE_FIELD: it,rec,kS,kL,kH=       4     1   1   1   1 file=ADJarea.0000000004
(PID.TID 0000.0001)  MDS_WRITE_FIELD: it,rec,kS,kL,kH=       4     1   1   1   1 file=ADJheff.0000000004
(PID.TID 0000.0001)  MDS_WRITE_FIELD: it,rec,kS,kL,kH=       4     1   1   1   1 file=ADJhsnow.0000000004
(PID.TID 0000.0001)  MDS_WRITE_FIELD: it,rec,kS,kL,kH=       4     1   1   1   1 file=ADJuice.0000000004
(PID.TID 0000.0001)  MDS_WRITE_FIELD: it,rec,kS,kL,kH=       4     1   1   1   1 file=ADJvice.0000000004
(PID.TID 0000.0001)  MDS_WRITE_FIELD: it,rec,kS,kL,kH=       4     1   1   1   1 file=ADJustress.0000000004
(PID.TID 0000.0001)  MDS_WRITE_FIELD: it,rec,kS,kL,kH=       4     1   1   1   1 file=ADJvstress.0000000004
(PID.TID 0000.0001)  MDS_WRITE_FIELD: it,rec,kS,kL,kH=       4     1   1   1   1 file=ADJhflux.0000000004
(PID.TID 0000.0001)  MDS_WRITE_FIELD: it,rec,kS,kL,kH=       4     1   1   1   1 file=ADJsflux.0000000004
(PID.TID 0000.0001)  MDS_WRITE_FIELD: it,rec,kS,kL,kH=       4     1   1   1   1 file=ADJatemp.0000000004
(PID.TID 0000.0001)  MDS_WRITE_FIELD: it,rec,kS,kL,kH=       4     1   1   1   1 file=ADJaqh.0000000004
(PID.TID 0000.0001)  MDS_WRITE_FIELD: it,rec,kS,kL,kH=       4     1   1   1   1 file=ADJprecip.0000000004
(PID.TID 0000.0001)  MDS_WRITE_FIELD: it,rec,kS,kL,kH=       4     1   1   1   1 file=ADJrunoff.0000000004
(PID.TID 0000.0001)  MDS_WRITE_FIELD: it,rec,kS,kL,kH=       4     1   1   1   1 file=ADJuwind.0000000004
(PID.TID 0000.0001)  MDS_WRITE_FIELD: it,rec,kS,kL,kH=       4     1   1   1   1 file=ADJvwind.0000000004
(PID.TID 0000.0001)  MDS_WRITE_FIELD: it,rec,kS,kL,kH=       4     1   1   1   1 file=ADJswdown.0000000004
(PID.TID 0000.0001)  MDS_WRITE_FIELD: it,rec,kS,kL,kH=       4     1   1   1   1 file=ADJlwdown.0000000004
(PID.TID 0000.0001)  MDS_WRITE_FIELD: it,rec,kS,kL,kH=       4     1   1   1   1 file=ADJclimsst.0000000004
(PID.TID 0000.0001)  MDS_WRITE_FIELD: it,rec,kS,kL,kH=       4     1   1   1   1 file=ADJclimsss.0000000004
(PID.TID 0000.0001)  MDS_READ_FIELD: opening global file: adxx_atemp.effective.0000000001.data
(PID.TID 0000.0001)  MDS_WRITE_FIELD: it,rec,kS,kL,kH=       1    -6  23   1   1 file=adxx_atemp.effective.0000000001
(PID.TID 0000.0001) S/R ADAUTODIFF_INADMODE_UNSET: useKPP    =    T
(PID.TID 0000.0001) S/R ADAUTODIFF_INADMODE_UNSET: useGMRedi =    T
(PID.TID 0000.0001) S/R ADAUTODIFF_INADMODE_UNSET: useSEAICE =    T
(PID.TID 0000.0001) S/R ADAUTODIFF_INADMODE_UNSET: useGGL90    =    F
(PID.TID 0000.0001) S/R ADAUTODIFF_INADMODE_UNSET: useSALT_PLUME    =    F
(PID.TID 0000.0001) S/R ADAUTODIFF_INADMODE_UNSET: viscFacAdj = 1.00000000000000E+00
(PID.TID 0000.0001)  MDS_READ_FIELD: opening global file: adm_sst_step.0000000001.data
(PID.TID 0000.0001)  MDS_WRITE_FIELD: it,rec,kS,kL,kH=       1    -5  23   1   1 file=adm_sst_step.0000000001
(PID.TID 0000.0001) ADREAD:  tid,vid, irec, length, prec(x2)=    39     1     1      672  8 64 fname=tapelev3_1_the_main_loop_etan
(PID.TID 0000.0001) ADREAD:  tid,vid, irec, length, prec(x2)=    39     2     1      672  8 64 fname=tapelev3_2_the_main_loop_taux0
(PID.TID 0000.0001) ADREAD:  tid,vid, irec, length, prec(x2)=    39     3     1      672  8 64 fname=tapelev3_3_the_main_loop_taux1
(PID.TID 0000.0001) ADREAD:  tid,vid, irec, length, prec(x2)=    39     4     1      672  8 64 fname=tapelev3_4_the_main_loop_tauy0
(PID.TID 0000.0001) ADREAD:  tid,vid, irec, length, prec(x2)=    39     5     1      672  8 64 fname=tapelev3_5_the_main_loop_tauy1
(PID.TID 0000.0001) ADREAD:  tid,vid, irec, length, prec(x2)=    39     6     1      672  8 64 fname=tapelev3_6_the_main_loop_qnet0
(PID.TID 0000.0001) ADREAD:  tid,vid, irec, length, prec(x2)=    39     7     1      672  8 64 fname=tapelev3_7_the_main_loop_qnet1
(PID.TID 0000.0001) ADREAD:  tid,vid, irec, length, prec(x2)=    39     8     1      672  8 64 fname=tapelev3_8_the_main_loop_empmr0
(PID.TID 0000.0001) ADREAD:  tid,vid, irec, length, prec(x2)=    39     9     1      672  8 64 fname=tapelev3_9_the_main_loop_empmr1
(PID.TID 0000.0001) ADREAD:  tid,vid, irec, length, prec(x2)=    39    10     1      672  8 64 fname=tapelev3_10_the_main_loop_sst0
(PID.TID 0000.0001) ADREAD:  tid,vid, irec, length, prec(x2)=    39    11     1      672  8 64 fname=tapelev3_11_the_main_loop_sst1
(PID.TID 0000.0001) ADREAD:  tid,vid, irec, length, prec(x2)=    39    12     1      672  8 64 fname=tapelev3_12_the_main_loop_sss0
(PID.TID 0000.0001) ADREAD:  tid,vid, irec, length, prec(x2)=    39    13     1      672  8 64 fname=tapelev3_13_the_main_loop_sss1
(PID.TID 0000.0001) ADREAD:  tid,vid, irec, length, prec(x2)=    39    14     1      672  8 64 fname=tapelev3_14_the_main_loop_saltflux0
(PID.TID 0000.0001) ADREAD:  tid,vid, irec, length, prec(x2)=    39    15     1      672  8 64 fname=tapelev3_15_the_main_loop_saltflux1
(PID.TID 0000.0001) ADREAD:  tid,vid, irec, length, prec(x2)=    39    16     1      672  8 64 fname=tapelev3_16_the_main_loop_qsw0
(PID.TID 0000.0001) ADREAD:  tid,vid, irec, length, prec(x2)=    39    17     1      672  8 64 fname=tapelev3_17_the_main_loop_qsw1
(PID.TID 0000.0001) ADREAD:  tid,vid, irec, length, prec(x2)=    39    18     1      672  8 64 fname=tapelev3_18_the_main_loop_pload0
(PID.TID 0000.0001) ADREAD:  tid,vid, irec, length, prec(x2)=    39    19     1      672  8 64 fname=tapelev3_19_the_main_loop_pload1
(PID.TID 0000.0001) ADREAD:  tid,vid, irec, length, prec(x2)=    39    20     1      672  8 64 fname=tapelev3_20_the_main_loop_etah
(PID.TID 0000.0001) ADREAD:  tid,vid, irec, length, prec(x2)=    39    21     1      672  8 64 fname=tapelev3_21_the_main_loop_detahdt
(PID.TID 0000.0001) ADREAD:  tid,vid, irec, length, prec(x2)=    39    22     1      672  8 64 fname=tapelev3_22_the_main_loop_pmepr
(PID.TID 0000.0001) ADREAD:  tid,vid, irec, length, prec(x2)=    39    23     1    15456  8 64 fname=tapelev3_23_the_main_loop_gtnm1
(PID.TID 0000.0001) ADREAD:  tid,vid, irec, length, prec(x2)=    39    24     1    15456  8 64 fname=tapelev3_24_the_main_loop_gsnm1
(PID.TID 0000.0001) ADREAD:  tid,vid, irec, length, prec(x2)=    39    25     1    15456  8 64 fname=tapelev3_25_the_main_loop_gunm1
(PID.TID 0000.0001) ADREAD:  tid,vid, irec, length, prec(x2)=    39    26     1    15456  8 64 fname=tapelev3_26_the_main_loop_gvnm1
(PID.TID 0000.0001) ADREAD:  tid,vid, irec, length, prec(x2)=    39    27     1    15456  8 64 fname=tapelev3_27_the_main_loop_theta
(PID.TID 0000.0001) ADREAD:  tid,vid, irec, length, prec(x2)=    39    28     1    15456  8 64 fname=tapelev3_28_the_main_loop_salt
(PID.TID 0000.0001) ADREAD:  tid,vid, irec, length, prec(x2)=    39    29     1    15456  8 64 fname=tapelev3_29_the_main_loop_uvel
(PID.TID 0000.0001) ADREAD:  tid,vid, irec, length, prec(x2)=    39    30     1    15456  8 64 fname=tapelev3_30_the_main_loop_vvel
(PID.TID 0000.0001) ADREAD:  tid,vid, irec, length, prec(x2)=    39    31     1    15456  8 64 fname=tapelev3_31_the_main_loop_wvel
(PID.TID 0000.0001) ADREAD:  tid,vid, irec, length, prec(x2)=    39    32     1    15456  8 64 fname=tapelev3_32_the_main_loop_totphihyd
(PID.TID 0000.0001) ADREAD:  tid,vid, irec, length, prec(x2)=    39    35     1    15456  8 64 fname=tapelev3_35_the_main_loop_uveld
(PID.TID 0000.0001) ADREAD:  tid,vid, irec, length, prec(x2)=    39    36     1    15456  8 64 fname=tapelev3_36_the_main_loop_vveld
(PID.TID 0000.0001) ADREAD:  tid,vid, irec, length, prec(x2)=    39    37     1      672  8 64 fname=tapelev3_37_the_main_loop_etanm1
(PID.TID 0000.0001) ADREAD:  tid,vid, irec, length, prec(x2)=    39    38     1    15456  8 64 fname=tapelev3_38_the_main_loop_unm1
(PID.TID 0000.0001) ADREAD:  tid,vid, irec, length, prec(x2)=    39    39     1    15456  8 64 fname=tapelev3_39_the_main_loop_vnm1
(PID.TID 0000.0001) ADREAD:  tid,vid, irec, length, prec(x2)=    39    40     1      672  8 64 fname=tapelev3_40_the_main_loop_areamask0
(PID.TID 0000.0001) ADREAD:  tid,vid, irec, length, prec(x2)=    39    41     1      672  8 64 fname=tapelev3_41_the_main_loop_areamask1
(PID.TID 0000.0001) ADREAD:  tid,vid, irec, length, prec(x2)=    39    42     1      672  8 64 fname=tapelev3_42_the_main_loop_hflux0
(PID.TID 0000.0001) ADREAD:  tid,vid, irec, length, prec(x2)=    39    43     1      672  8 64 fname=tapelev3_43_the_main_loop_hflux1
(PID.TID 0000.0001) ADREAD:  tid,vid, irec, length, prec(x2)=    39    44     1      672  8 64 fname=tapelev3_44_the_main_loop_sflux0
(PID.TID 0000.0001) ADREAD:  tid,vid, irec, length, prec(x2)=    39    45     1      672  8 64 fname=tapelev3_45_the_main_loop_sflux1
(PID.TID 0000.0001) ADREAD:  tid,vid, irec, length, prec(x2)=    39    46     1      672  8 64 fname=tapelev3_46_the_main_loop_ustress0
(PID.TID 0000.0001) ADREAD:  tid,vid, irec, length, prec(x2)=    39    47     1      672  8 64 fname=tapelev3_47_the_main_loop_ustress1
(PID.TID 0000.0001) ADREAD:  tid,vid, irec, length, prec(x2)=    39    48     1      672  8 64 fname=tapelev3_48_the_main_loop_vstress0
(PID.TID 0000.0001) ADREAD:  tid,vid, irec, length, prec(x2)=    39    49     1      672  8 64 fname=tapelev3_49_the_main_loop_vstress1
(PID.TID 0000.0001) ADREAD:  tid,vid, irec, length, prec(x2)=    39    50     1      672  8 64 fname=tapelev3_50_the_main_loop_wspeed0
(PID.TID 0000.0001) ADREAD:  tid,vid, irec, length, prec(x2)=    39    51     1      672  8 64 fname=tapelev3_51_the_main_loop_wspeed1
(PID.TID 0000.0001) ADREAD:  tid,vid, irec, length, prec(x2)=    39    54     1      672  8 64 fname=tapelev3_54_the_main_loop_runoff0
(PID.TID 0000.0001) ADREAD:  tid,vid, irec, length, prec(x2)=    39    55     1      672  8 64 fname=tapelev3_55_the_main_loop_runoff1
(PID.TID 0000.0001) ADREAD:  tid,vid, irec, length, prec(x2)=    39    56     1      672  8 64 fname=tapelev3_56_the_main_loop_apressure0
(PID.TID 0000.0001) ADREAD:  tid,vid, irec, length, prec(x2)=    39    57     1      672  8 64 fname=tapelev3_57_the_main_loop_apressure1
(PID.TID 0000.0001) ADREAD:  tid,vid, irec, length, prec(x2)=    39    58     1      672  8 64 fname=tapelev3_58_the_main_loop_siceload
(PID.TID 0000.0001) ADREAD:  tid,vid, irec, length, prec(x2)=    39    59     1      672  8 64 fname=tapelev3_59_the_main_loop_climsss0
(PID.TID 0000.0001) ADREAD:  tid,vid, irec, length, prec(x2)=    39    60     1      672  8 64 fname=tapelev3_60_the_main_loop_climsss1
(PID.TID 0000.0001) ADREAD:  tid,vid, irec, length, prec(x2)=    39    61     1      672  8 64 fname=tapelev3_61_the_main_loop_climsst0
(PID.TID 0000.0001) ADREAD:  tid,vid, irec, length, prec(x2)=    39    62     1      672  8 64 fname=tapelev3_62_the_main_loop_climsst1
(PID.TID 0000.0001) ADREAD:  tid,vid, irec, length, prec(x2)=    39    63     1      672  8 64 fname=tapelev3_63_the_main_loop_saltflx0
(PID.TID 0000.0001) ADREAD:  tid,vid, irec, length, prec(x2)=    39    64     1      672  8 64 fname=tapelev3_64_the_main_loop_saltflx1
(PID.TID 0000.0001) ADREAD:  tid,vid, irec, length, prec(x2)=    39    65     1      672  8 64 fname=tapelev3_65_the_main_loop_aqh0
(PID.TID 0000.0001) ADREAD:  tid,vid, irec, length, prec(x2)=    39    66     1      672  8 64 fname=tapelev3_66_the_main_loop_aqh1
(PID.TID 0000.0001) ADREAD:  tid,vid, irec, length, prec(x2)=    39    67     1      672  8 64 fname=tapelev3_67_the_main_loop_atemp0
(PID.TID 0000.0001) ADREAD:  tid,vid, irec, length, prec(x2)=    39    68     1      672  8 64 fname=tapelev3_68_the_main_loop_atemp1
(PID.TID 0000.0001) ADREAD:  tid,vid, irec, length, prec(x2)=    39    69     1      672  8 64 fname=tapelev3_69_the_main_loop_precip0
(PID.TID 0000.0001) ADREAD:  tid,vid, irec, length, prec(x2)=    39    70     1      672  8 64 fname=tapelev3_70_the_main_loop_precip1
(PID.TID 0000.0001) ADREAD:  tid,vid, irec, length, prec(x2)=    39    73     1      672  8 64 fname=tapelev3_73_the_main_loop_snowprecip0
(PID.TID 0000.0001) ADREAD:  tid,vid, irec, length, prec(x2)=    39    74     1      672  8 64 fname=tapelev3_74_the_main_loop_snowprecip1
(PID.TID 0000.0001) ADREAD:  tid,vid, irec, length, prec(x2)=    39    75     1      672  8 64 fname=tapelev3_75_the_main_loop_swdown0
(PID.TID 0000.0001) ADREAD:  tid,vid, irec, length, prec(x2)=    39    76     1      672  8 64 fname=tapelev3_76_the_main_loop_swdown1
(PID.TID 0000.0001) ADREAD:  tid,vid, irec, length, prec(x2)=    39    77     1      672  8 64 fname=tapelev3_77_the_main_loop_lwdown0
(PID.TID 0000.0001) ADREAD:  tid,vid, irec, length, prec(x2)=    39    78     1      672  8 64 fname=tapelev3_78_the_main_loop_lwdown1
(PID.TID 0000.0001) ADREAD:  tid,vid, irec, length, prec(x2)=    39    79     1      672  8 64 fname=tapelev3_79_the_main_loop_uwind0
(PID.TID 0000.0001) ADREAD:  tid,vid, irec, length, prec(x2)=    39    80     1      672  8 64 fname=tapelev3_80_the_main_loop_uwind1
(PID.TID 0000.0001) ADREAD:  tid,vid, irec, length, prec(x2)=    39    81     1      672  8 64 fname=tapelev3_81_the_main_loop_vwind0
(PID.TID 0000.0001) ADREAD:  tid,vid, irec, length, prec(x2)=    39    82     1      672  8 64 fname=tapelev3_82_the_main_loop_vwind1
(PID.TID 0000.0001) ADREAD:  tid,vid, irec, length, prec(x2)=    39    83     1     6048  8 64 fname=tapelev3_83_the_main_loop_xx_gentim2d
(PID.TID 0000.0001) ADREAD:  tid,vid, irec, length, prec(x2)=    39    84     1     6048  8 64 fname=tapelev3_84_the_main_loop_xx_gentim2d0
(PID.TID 0000.0001) ADREAD:  tid,vid, irec, length, prec(x2)=    39    85     1     6048  8 64 fname=tapelev3_85_the_main_loop_xx_gentim2d1
(PID.TID 0000.0001) ADREAD:  tid,vid, irec, length, prec(x2)=    39    87     1      672  8 64 fname=tapelev3_87_the_main_loop_phihydlow
(PID.TID 0000.0001) ADREAD:  tid,vid, irec, length, prec(x2)=    39    88     1      672  8 64 fname=tapelev3_88_the_main_loop_area
(PID.TID 0000.0001) ADREAD:  tid,vid, irec, length, prec(x2)=    39    89     1      672  8 64 fname=tapelev3_89_the_main_loop_heff
(PID.TID 0000.0001) ADREAD:  tid,vid, irec, length, prec(x2)=    39    90     1      672  8 64 fname=tapelev3_90_the_main_loop_hsnow
(PID.TID 0000.0001) ADREAD:  tid,vid, irec, length, prec(x2)=    39    92     1      672  8 64 fname=tapelev3_92_the_main_loop_uice
(PID.TID 0000.0001) ADREAD:  tid,vid, irec, length, prec(x2)=    39    93     1      672  8 64 fname=tapelev3_93_the_main_loop_vice
(PID.TID 0000.0001) ADREAD:  tid,vid, irec, length, prec(x2)=    39    96     1     4704  8 64 fname=tapelev3_96_the_main_loop_tices
(PID.TID 0000.0001) ADREAD:  tid,vid, irec, length, prec(x2)=    39    97     1      672  8 64 fname=tapelev3_97_the_main_loop_dwatn
(PID.TID 0000.0001) ADREAD:  tid,vid, irec, length, prec(x2)=    39    98     1      672  8 64 fname=tapelev3_98_the_main_loop_stressdivergencex
(PID.TID 0000.0001) ADREAD:  tid,vid, irec, length, prec(x2)=    39    99     1      672  8 64 fname=tapelev3_99_the_main_loop_stressdivergencey
(PID.TID 0000.0001) ADREAD:  tid,vid, irec, length, prec(x2)=    39   100     1      672  8 64 fname=tapelev3_100_the_main_loop_seaice_sigma1
(PID.TID 0000.0001) ADREAD:  tid,vid, irec, length, prec(x2)=    39   101     1      672  8 64 fname=tapelev3_101_the_main_loop_seaice_sigma2
(PID.TID 0000.0001) ADREAD:  tid,vid, irec, length, prec(x2)=    39   102     1      672  8 64 fname=tapelev3_102_the_main_loop_seaice_sigma12
(PID.TID 0000.0001) ADREAD:  tid,vid, irec, length, prec(x2)=    39   103     1      672  8 64 fname=tapelev3_103_the_main_loop_hsalt
(PID.TID 0000.0001) ADWRITE: tid,vid, irec, length, prec(x2)=    41     1     1      672  8 64 fname=tapelev2_1_the_main_loop_etan
(PID.TID 0000.0001) ADWRITE:  tapeFileCounter =     1
(PID.TID 0000.0001) ADWRITE: tid,vid, irec, length, prec(x2)=    41     2     1      672  8 64 fname=tapelev2_2_the_main_loop_taux0
(PID.TID 0000.0001) ADWRITE:  tapeFileCounter =     2
(PID.TID 0000.0001) ADWRITE: tid,vid, irec, length, prec(x2)=    41     3     1      672  8 64 fname=tapelev2_3_the_main_loop_taux1
(PID.TID 0000.0001) ADWRITE:  tapeFileCounter =     3
(PID.TID 0000.0001) ADWRITE: tid,vid, irec, length, prec(x2)=    41     4     1      672  8 64 fname=tapelev2_4_the_main_loop_tauy0
(PID.TID 0000.0001) ADWRITE:  tapeFileCounter =     4
(PID.TID 0000.0001) ADWRITE: tid,vid, irec, length, prec(x2)=    41     5     1      672  8 64 fname=tapelev2_5_the_main_loop_tauy1
(PID.TID 0000.0001) ADWRITE:  tapeFileCounter =     5
(PID.TID 0000.0001) ADWRITE: tid,vid, irec, length, prec(x2)=    41     6     1      672  8 64 fname=tapelev2_6_the_main_loop_qnet0
(PID.TID 0000.0001) ADWRITE:  tapeFileCounter =     6
(PID.TID 0000.0001) ADWRITE: tid,vid, irec, length, prec(x2)=    41     7     1      672  8 64 fname=tapelev2_7_the_main_loop_qnet1
(PID.TID 0000.0001) ADWRITE:  tapeFileCounter =     7
(PID.TID 0000.0001) ADWRITE: tid,vid, irec, length, prec(x2)=    41     8     1      672  8 64 fname=tapelev2_8_the_main_loop_empmr0
(PID.TID 0000.0001) ADWRITE:  tapeFileCounter =     8
(PID.TID 0000.0001) ADWRITE: tid,vid, irec, length, prec(x2)=    41     9     1      672  8 64 fname=tapelev2_9_the_main_loop_empmr1
(PID.TID 0000.0001) ADWRITE:  tapeFileCounter =     9
(PID.TID 0000.0001) ADWRITE: tid,vid, irec, length, prec(x2)=    41    10     1      672  8 64 fname=tapelev2_10_the_main_loop_sst0
(PID.TID 0000.0001) ADWRITE:  tapeFileCounter =    10
(PID.TID 0000.0001) ADWRITE: tid,vid, irec, length, prec(x2)=    41    11     1      672  8 64 fname=tapelev2_11_the_main_loop_sst1
(PID.TID 0000.0001) ADWRITE:  tapeFileCounter =    11
(PID.TID 0000.0001) ADWRITE: tid,vid, irec, length, prec(x2)=    41    12     1      672  8 64 fname=tapelev2_12_the_main_loop_sss0
(PID.TID 0000.0001) ADWRITE:  tapeFileCounter =    12
(PID.TID 0000.0001) ADWRITE: tid,vid, irec, length, prec(x2)=    41    13     1      672  8 64 fname=tapelev2_13_the_main_loop_sss1
(PID.TID 0000.0001) ADWRITE:  tapeFileCounter =    13
(PID.TID 0000.0001) ADWRITE: tid,vid, irec, length, prec(x2)=    41    14     1      672  8 64 fname=tapelev2_14_the_main_loop_saltflux0
(PID.TID 0000.0001) ADWRITE:  tapeFileCounter =    14
(PID.TID 0000.0001) ADWRITE: tid,vid, irec, length, prec(x2)=    41    15     1      672  8 64 fname=tapelev2_15_the_main_loop_saltflux1
(PID.TID 0000.0001) ADWRITE:  tapeFileCounter =    15
(PID.TID 0000.0001) ADWRITE: tid,vid, irec, length, prec(x2)=    41    16     1      672  8 64 fname=tapelev2_16_the_main_loop_qsw0
(PID.TID 0000.0001) ADWRITE:  tapeFileCounter =    16
(PID.TID 0000.0001) ADWRITE: tid,vid, irec, length, prec(x2)=    41    17     1      672  8 64 fname=tapelev2_17_the_main_loop_qsw1
(PID.TID 0000.0001) ADWRITE:  tapeFileCounter =    17
(PID.TID 0000.0001) ADWRITE: tid,vid, irec, length, prec(x2)=    41    18     1      672  8 64 fname=tapelev2_18_the_main_loop_pload0
(PID.TID 0000.0001) ADWRITE:  tapeFileCounter =    18
(PID.TID 0000.0001) ADWRITE: tid,vid, irec, length, prec(x2)=    41    19     1      672  8 64 fname=tapelev2_19_the_main_loop_pload1
(PID.TID 0000.0001) ADWRITE:  tapeFileCounter =    19
(PID.TID 0000.0001) ADWRITE: tid,vid, irec, length, prec(x2)=    41    20     1      672  8 64 fname=tapelev2_20_the_main_loop_etah
(PID.TID 0000.0001) ADWRITE:  tapeFileCounter =    20
(PID.TID 0000.0001) ADWRITE: tid,vid, irec, length, prec(x2)=    41    21     1      672  8 64 fname=tapelev2_21_the_main_loop_detahdt
(PID.TID 0000.0001) ADWRITE:  tapeFileCounter =    21
(PID.TID 0000.0001) ADWRITE: tid,vid, irec, length, prec(x2)=    41    22     1      672  8 64 fname=tapelev2_22_the_main_loop_pmepr
(PID.TID 0000.0001) ADWRITE:  tapeFileCounter =    22
(PID.TID 0000.0001) ADWRITE: tid,vid, irec, length, prec(x2)=    41    23     1    15456  8 64 fname=tapelev2_23_the_main_loop_gtnm1
(PID.TID 0000.0001) ADWRITE:  tapeFileCounter =    23
(PID.TID 0000.0001) ADWRITE:  tapeFileCounter =    24
(PID.TID 0000.0001) ADWRITE:  tapeFileCounter =    25
(PID.TID 0000.0001) ADWRITE:  tapeFileCounter =    26
(PID.TID 0000.0001) ADWRITE:  tapeFileCounter =    27
(PID.TID 0000.0001) ADWRITE:  tapeFileCounter =    28
(PID.TID 0000.0001) ADWRITE:  tapeFileCounter =    29
(PID.TID 0000.0001) ADWRITE:  tapeFileCounter =    30
(PID.TID 0000.0001) ADWRITE:  tapeFileCounter =    31
(PID.TID 0000.0001) ADWRITE:  tapeFileCounter =    32
(PID.TID 0000.0001) ADWRITE:  tapeFileCounter =    33
(PID.TID 0000.0001) ADWRITE:  tapeFileCounter =    34
(PID.TID 0000.0001) ADWRITE:  tapeFileCounter =    35
(PID.TID 0000.0001) ADWRITE:  tapeFileCounter =    36
(PID.TID 0000.0001) ADWRITE:  tapeFileCounter =    37
(PID.TID 0000.0001) ADWRITE:  tapeFileCounter =    38
(PID.TID 0000.0001) ADWRITE:  tapeFileCounter =    39
(PID.TID 0000.0001) ADWRITE:  tapeFileCounter =    40
(PID.TID 0000.0001) ADWRITE:  tapeFileCounter =    41
(PID.TID 0000.0001) ADWRITE:  tapeFileCounter =    42
(PID.TID 0000.0001) ADWRITE:  tapeFileCounter =    43
(PID.TID 0000.0001) ADWRITE:  tapeFileCounter =    44
(PID.TID 0000.0001) ADWRITE:  tapeFileCounter =    45
(PID.TID 0000.0001) ADWRITE: tid,vid, irec, length, prec(x2)=    41    24     1    15456  8 64 fname=tapelev2_24_the_main_loop_gsnm1
(PID.TID 0000.0001) ADWRITE:  tapeFileCounter =    46
(PID.TID 0000.0001) ADWRITE:  tapeFileCounter =    47
(PID.TID 0000.0001) ADWRITE:  tapeFileCounter =    48
(PID.TID 0000.0001) ADWRITE:  tapeFileCounter =    49
(PID.TID 0000.0001) ADWRITE:  tapeFileCounter =    50
(PID.TID 0000.0001) ADWRITE:  tapeFileCounter =    51
(PID.TID 0000.0001) ADWRITE:  tapeFileCounter =    52
(PID.TID 0000.0001) ADWRITE:  tapeFileCounter =    53
(PID.TID 0000.0001) ADWRITE:  tapeFileCounter =    54
(PID.TID 0000.0001) ADWRITE:  tapeFileCounter =    55
(PID.TID 0000.0001) ADWRITE:  tapeFileCounter =    56
(PID.TID 0000.0001) ADWRITE:  tapeFileCounter =    57
(PID.TID 0000.0001) ADWRITE:  tapeFileCounter =    58
(PID.TID 0000.0001) ADWRITE:  tapeFileCounter =    59
(PID.TID 0000.0001) ADWRITE:  tapeFileCounter =    60
(PID.TID 0000.0001) ADWRITE:  tapeFileCounter =    61
(PID.TID 0000.0001) ADWRITE:  tapeFileCounter =    62
(PID.TID 0000.0001) ADWRITE:  tapeFileCounter =    63
(PID.TID 0000.0001) ADWRITE:  tapeFileCounter =    64
(PID.TID 0000.0001) ADWRITE:  tapeFileCounter =    65
(PID.TID 0000.0001) ADWRITE:  tapeFileCounter =    66
(PID.TID 0000.0001) ADWRITE:  tapeFileCounter =    67
(PID.TID 0000.0001) ADWRITE:  tapeFileCounter =    68
(PID.TID 0000.0001) ADWRITE: tid,vid, irec, length, prec(x2)=    41    25     1    15456  8 64 fname=tapelev2_25_the_main_loop_gunm1
(PID.TID 0000.0001) ADWRITE:  tapeFileCounter =    69
(PID.TID 0000.0001) ADWRITE:  tapeFileCounter =    70
(PID.TID 0000.0001) ADWRITE:  tapeFileCounter =    71
(PID.TID 0000.0001) ADWRITE:  tapeFileCounter =    72
(PID.TID 0000.0001) ADWRITE:  tapeFileCounter =    73
(PID.TID 0000.0001) ADWRITE:  tapeFileCounter =    74
(PID.TID 0000.0001) ADWRITE:  tapeFileCounter =    75
(PID.TID 0000.0001) ADWRITE:  tapeFileCounter =    76
(PID.TID 0000.0001) ADWRITE:  tapeFileCounter =    77
(PID.TID 0000.0001) ADWRITE:  tapeFileCounter =    78
(PID.TID 0000.0001) ADWRITE:  tapeFileCounter =    79
(PID.TID 0000.0001) ADWRITE:  tapeFileCounter =    80
(PID.TID 0000.0001) ADWRITE:  tapeFileCounter =    81
(PID.TID 0000.0001) ADWRITE:  tapeFileCounter =    82
(PID.TID 0000.0001) ADWRITE:  tapeFileCounter =    83
(PID.TID 0000.0001) ADWRITE:  tapeFileCounter =    84
(PID.TID 0000.0001) ADWRITE:  tapeFileCounter =    85
(PID.TID 0000.0001) ADWRITE:  tapeFileCounter =    86
(PID.TID 0000.0001) ADWRITE:  tapeFileCounter =    87
(PID.TID 0000.0001) ADWRITE:  tapeFileCounter =    88
(PID.TID 0000.0001) ADWRITE:  tapeFileCounter =    89
(PID.TID 0000.0001) ADWRITE:  tapeFileCounter =    90
(PID.TID 0000.0001) ADWRITE:  tapeFileCounter =    91
(PID.TID 0000.0001) ADWRITE: tid,vid, irec, length, prec(x2)=    41    26     1    15456  8 64 fname=tapelev2_26_the_main_loop_gvnm1
(PID.TID 0000.0001) ADWRITE:  tapeFileCounter =    92
(PID.TID 0000.0001) ADWRITE:  tapeFileCounter =    93
(PID.TID 0000.0001) ADWRITE:  tapeFileCounter =    94
(PID.TID 0000.0001) ADWRITE:  tapeFileCounter =    95
(PID.TID 0000.0001) ADWRITE:  tapeFileCounter =    96
(PID.TID 0000.0001) ADWRITE:  tapeFileCounter =    97
(PID.TID 0000.0001) ADWRITE:  tapeFileCounter =    98
(PID.TID 0000.0001) ADWRITE:  tapeFileCounter =    99
(PID.TID 0000.0001) ADWRITE:  tapeFileCounter =   100
(PID.TID 0000.0001) ADWRITE:  tapeFileCounter =   101
(PID.TID 0000.0001) ADWRITE:  tapeFileCounter =   102
(PID.TID 0000.0001) ADWRITE:  tapeFileCounter =   103
(PID.TID 0000.0001) ADWRITE:  tapeFileCounter =   104
(PID.TID 0000.0001) ADWRITE:  tapeFileCounter =   105
(PID.TID 0000.0001) ADWRITE:  tapeFileCounter =   106
(PID.TID 0000.0001) ADWRITE:  tapeFileCounter =   107
(PID.TID 0000.0001) ADWRITE:  tapeFileCounter =   108
(PID.TID 0000.0001) ADWRITE:  tapeFileCounter =   109
(PID.TID 0000.0001) ADWRITE:  tapeFileCounter =   110
(PID.TID 0000.0001) ADWRITE:  tapeFileCounter =   111
(PID.TID 0000.0001) ADWRITE:  tapeFileCounter =   112
(PID.TID 0000.0001) ADWRITE:  tapeFileCounter =   113
(PID.TID 0000.0001) ADWRITE:  tapeFileCounter =   114
(PID.TID 0000.0001) ADWRITE: tid,vid, irec, length, prec(x2)=    41    27     1    15456  8 64 fname=tapelev2_27_the_main_loop_theta
(PID.TID 0000.0001) ADWRITE:  tapeFileCounter =   115
(PID.TID 0000.0001) ADWRITE:  tapeFileCounter =   116
(PID.TID 0000.0001) ADWRITE:  tapeFileCounter =   117
(PID.TID 0000.0001) ADWRITE:  tapeFileCounter =   118
(PID.TID 0000.0001) ADWRITE:  tapeFileCounter =   119
(PID.TID 0000.0001) ADWRITE:  tapeFileCounter =   120
(PID.TID 0000.0001) ADWRITE:  tapeFileCounter =   121
(PID.TID 0000.0001) ADWRITE:  tapeFileCounter =   122
(PID.TID 0000.0001) ADWRITE:  tapeFileCounter =   123
(PID.TID 0000.0001) ADWRITE:  tapeFileCounter =   124
(PID.TID 0000.0001) ADWRITE:  tapeFileCounter =   125
(PID.TID 0000.0001) ADWRITE:  tapeFileCounter =   126
(PID.TID 0000.0001) ADWRITE:  tapeFileCounter =   127
(PID.TID 0000.0001) ADWRITE:  tapeFileCounter =   128
(PID.TID 0000.0001) ADWRITE:  tapeFileCounter =   129
(PID.TID 0000.0001) ADWRITE:  tapeFileCounter =   130
(PID.TID 0000.0001) ADWRITE:  tapeFileCounter =   131
(PID.TID 0000.0001) ADWRITE:  tapeFileCounter =   132
(PID.TID 0000.0001) ADWRITE:  tapeFileCounter =   133
(PID.TID 0000.0001) ADWRITE:  tapeFileCounter =   134
(PID.TID 0000.0001) ADWRITE:  tapeFileCounter =   135
(PID.TID 0000.0001) ADWRITE:  tapeFileCounter =   136
(PID.TID 0000.0001) ADWRITE:  tapeFileCounter =   137
(PID.TID 0000.0001) ADWRITE: tid,vid, irec, length, prec(x2)=    41    28     1    15456  8 64 fname=tapelev2_28_the_main_loop_salt
(PID.TID 0000.0001) ADWRITE:  tapeFileCounter =   138
(PID.TID 0000.0001) ADWRITE:  tapeFileCounter =   139
(PID.TID 0000.0001) ADWRITE:  tapeFileCounter =   140
(PID.TID 0000.0001) ADWRITE:  tapeFileCounter =   141
(PID.TID 0000.0001) ADWRITE:  tapeFileCounter =   142
(PID.TID 0000.0001) ADWRITE:  tapeFileCounter =   143
(PID.TID 0000.0001) ADWRITE:  tapeFileCounter =   144
(PID.TID 0000.0001) ADWRITE:  tapeFileCounter =   145
(PID.TID 0000.0001) ADWRITE:  tapeFileCounter =   146
(PID.TID 0000.0001) ADWRITE:  tapeFileCounter =   147
(PID.TID 0000.0001) ADWRITE:  tapeFileCounter =   148
(PID.TID 0000.0001) ADWRITE:  tapeFileCounter =   149
(PID.TID 0000.0001) ADWRITE:  tapeFileCounter =   150
(PID.TID 0000.0001) ADWRITE:  tapeFileCounter =   151
(PID.TID 0000.0001) ADWRITE:  tapeFileCounter =   152
(PID.TID 0000.0001) ADWRITE:  tapeFileCounter =   153
(PID.TID 0000.0001) ADWRITE:  tapeFileCounter =   154
(PID.TID 0000.0001) ADWRITE:  tapeFileCounter =   155
(PID.TID 0000.0001) ADWRITE:  tapeFileCounter =   156
(PID.TID 0000.0001) ADWRITE:  tapeFileCounter =   157
(PID.TID 0000.0001) ADWRITE:  tapeFileCounter =   158
(PID.TID 0000.0001) ADWRITE:  tapeFileCounter =   159
(PID.TID 0000.0001) ADWRITE:  tapeFileCounter =   160
(PID.TID 0000.0001) ADWRITE: tid,vid, irec, length, prec(x2)=    41    29     1    15456  8 64 fname=tapelev2_29_the_main_loop_uvel
(PID.TID 0000.0001) ADWRITE:  tapeFileCounter =   161
(PID.TID 0000.0001) ADWRITE:  tapeFileCounter =   162
(PID.TID 0000.0001) ADWRITE:  tapeFileCounter =   163
(PID.TID 0000.0001) ADWRITE:  tapeFileCounter =   164
(PID.TID 0000.0001) ADWRITE:  tapeFileCounter =   165
(PID.TID 0000.0001) ADWRITE:  tapeFileCounter =   166
(PID.TID 0000.0001) ADWRITE:  tapeFileCounter =   167
(PID.TID 0000.0001) ADWRITE:  tapeFileCounter =   168
(PID.TID 0000.0001) ADWRITE:  tapeFileCounter =   169
(PID.TID 0000.0001) ADWRITE:  tapeFileCounter =   170
(PID.TID 0000.0001) ADWRITE:  tapeFileCounter =   171
(PID.TID 0000.0001) ADWRITE:  tapeFileCounter =   172
(PID.TID 0000.0001) ADWRITE:  tapeFileCounter =   173
(PID.TID 0000.0001) ADWRITE:  tapeFileCounter =   174
(PID.TID 0000.0001) ADWRITE:  tapeFileCounter =   175
(PID.TID 0000.0001) ADWRITE:  tapeFileCounter =   176
(PID.TID 0000.0001) ADWRITE:  tapeFileCounter =   177
(PID.TID 0000.0001) ADWRITE:  tapeFileCounter =   178
(PID.TID 0000.0001) ADWRITE:  tapeFileCounter =   179
(PID.TID 0000.0001) ADWRITE:  tapeFileCounter =   180
(PID.TID 0000.0001) ADWRITE:  tapeFileCounter =   181
(PID.TID 0000.0001) ADWRITE:  tapeFileCounter =   182
(PID.TID 0000.0001) ADWRITE:  tapeFileCounter =   183
(PID.TID 0000.0001) ADWRITE: tid,vid, irec, length, prec(x2)=    41    30     1    15456  8 64 fname=tapelev2_30_the_main_loop_vvel
(PID.TID 0000.0001) ADWRITE:  tapeFileCounter =   184
(PID.TID 0000.0001) ADWRITE:  tapeFileCounter =   185
(PID.TID 0000.0001) ADWRITE:  tapeFileCounter =   186
(PID.TID 0000.0001) ADWRITE:  tapeFileCounter =   187
(PID.TID 0000.0001) ADWRITE:  tapeFileCounter =   188
(PID.TID 0000.0001) ADWRITE:  tapeFileCounter =   189
(PID.TID 0000.0001) ADWRITE:  tapeFileCounter =   190
(PID.TID 0000.0001) ADWRITE:  tapeFileCounter =   191
(PID.TID 0000.0001) ADWRITE:  tapeFileCounter =   192
(PID.TID 0000.0001) ADWRITE:  tapeFileCounter =   193
(PID.TID 0000.0001) ADWRITE:  tapeFileCounter =   194
(PID.TID 0000.0001) ADWRITE:  tapeFileCounter =   195
(PID.TID 0000.0001) ADWRITE:  tapeFileCounter =   196
(PID.TID 0000.0001) ADWRITE:  tapeFileCounter =   197
(PID.TID 0000.0001) ADWRITE:  tapeFileCounter =   198
(PID.TID 0000.0001) ADWRITE:  tapeFileCounter =   199
(PID.TID 0000.0001) ADWRITE:  tapeFileCounter =   200
(PID.TID 0000.0001) ADWRITE:  tapeFileCounter =   201
(PID.TID 0000.0001) ADWRITE:  tapeFileCounter =   202
(PID.TID 0000.0001) ADWRITE:  tapeFileCounter =   203
(PID.TID 0000.0001) ADWRITE:  tapeFileCounter =   204
(PID.TID 0000.0001) ADWRITE:  tapeFileCounter =   205
(PID.TID 0000.0001) ADWRITE:  tapeFileCounter =   206
(PID.TID 0000.0001) ADWRITE: tid,vid, irec, length, prec(x2)=    41    31     1    15456  8 64 fname=tapelev2_31_the_main_loop_wvel
(PID.TID 0000.0001) ADWRITE:  tapeFileCounter =   207
(PID.TID 0000.0001) ADWRITE:  tapeFileCounter =   208
(PID.TID 0000.0001) ADWRITE:  tapeFileCounter =   209
(PID.TID 0000.0001) ADWRITE:  tapeFileCounter =   210
(PID.TID 0000.0001) ADWRITE:  tapeFileCounter =   211
(PID.TID 0000.0001) ADWRITE:  tapeFileCounter =   212
(PID.TID 0000.0001) ADWRITE:  tapeFileCounter =   213
(PID.TID 0000.0001) ADWRITE:  tapeFileCounter =   214
(PID.TID 0000.0001) ADWRITE:  tapeFileCounter =   215
(PID.TID 0000.0001) ADWRITE:  tapeFileCounter =   216
(PID.TID 0000.0001) ADWRITE:  tapeFileCounter =   217
(PID.TID 0000.0001) ADWRITE:  tapeFileCounter =   218
(PID.TID 0000.0001) ADWRITE:  tapeFileCounter =   219
(PID.TID 0000.0001) ADWRITE:  tapeFileCounter =   220
(PID.TID 0000.0001) ADWRITE:  tapeFileCounter =   221
(PID.TID 0000.0001) ADWRITE:  tapeFileCounter =   222
(PID.TID 0000.0001) ADWRITE:  tapeFileCounter =   223
(PID.TID 0000.0001) ADWRITE:  tapeFileCounter =   224
(PID.TID 0000.0001) ADWRITE:  tapeFileCounter =   225
(PID.TID 0000.0001) ADWRITE:  tapeFileCounter =   226
(PID.TID 0000.0001) ADWRITE:  tapeFileCounter =   227
(PID.TID 0000.0001) ADWRITE:  tapeFileCounter =   228
(PID.TID 0000.0001) ADWRITE:  tapeFileCounter =   229
(PID.TID 0000.0001) ADWRITE: tid,vid, irec, length, prec(x2)=    41    32     1    15456  8 64 fname=tapelev2_32_the_main_loop_totphihyd
(PID.TID 0000.0001) ADWRITE:  tapeFileCounter =   230
(PID.TID 0000.0001) ADWRITE:  tapeFileCounter =   231
(PID.TID 0000.0001) ADWRITE:  tapeFileCounter =   232
(PID.TID 0000.0001) ADWRITE:  tapeFileCounter =   233
(PID.TID 0000.0001) ADWRITE:  tapeFileCounter =   234
(PID.TID 0000.0001) ADWRITE:  tapeFileCounter =   235
(PID.TID 0000.0001) ADWRITE:  tapeFileCounter =   236
(PID.TID 0000.0001) ADWRITE:  tapeFileCounter =   237
(PID.TID 0000.0001) ADWRITE:  tapeFileCounter =   238
(PID.TID 0000.0001) ADWRITE:  tapeFileCounter =   239
(PID.TID 0000.0001) ADWRITE:  tapeFileCounter =   240
(PID.TID 0000.0001) ADWRITE:  tapeFileCounter =   241
(PID.TID 0000.0001) ADWRITE:  tapeFileCounter =   242
(PID.TID 0000.0001) ADWRITE:  tapeFileCounter =   243
(PID.TID 0000.0001) ADWRITE:  tapeFileCounter =   244
(PID.TID 0000.0001) ADWRITE:  tapeFileCounter =   245
(PID.TID 0000.0001) ADWRITE:  tapeFileCounter =   246
(PID.TID 0000.0001) ADWRITE:  tapeFileCounter =   247
(PID.TID 0000.0001) ADWRITE:  tapeFileCounter =   248
(PID.TID 0000.0001) ADWRITE:  tapeFileCounter =   249
(PID.TID 0000.0001) ADWRITE:  tapeFileCounter =   250
(PID.TID 0000.0001) ADWRITE:  tapeFileCounter =   251
(PID.TID 0000.0001) ADWRITE:  tapeFileCounter =   252
(PID.TID 0000.0001) ADWRITE: tid,vid, irec, length, prec(x2)=    41    35     1    15456  8 64 fname=tapelev2_35_the_main_loop_uveld
(PID.TID 0000.0001) ADWRITE:  tapeFileCounter =   253
(PID.TID 0000.0001) ADWRITE:  tapeFileCounter =   254
(PID.TID 0000.0001) ADWRITE:  tapeFileCounter =   255
(PID.TID 0000.0001) ADWRITE:  tapeFileCounter =   256
(PID.TID 0000.0001) ADWRITE:  tapeFileCounter =   257
(PID.TID 0000.0001) ADWRITE:  tapeFileCounter =   258
(PID.TID 0000.0001) ADWRITE:  tapeFileCounter =   259
(PID.TID 0000.0001) ADWRITE:  tapeFileCounter =   260
(PID.TID 0000.0001) ADWRITE:  tapeFileCounter =   261
(PID.TID 0000.0001) ADWRITE:  tapeFileCounter =   262
(PID.TID 0000.0001) ADWRITE:  tapeFileCounter =   263
(PID.TID 0000.0001) ADWRITE:  tapeFileCounter =   264
(PID.TID 0000.0001) ADWRITE:  tapeFileCounter =   265
(PID.TID 0000.0001) ADWRITE:  tapeFileCounter =   266
(PID.TID 0000.0001) ADWRITE:  tapeFileCounter =   267
(PID.TID 0000.0001) ADWRITE:  tapeFileCounter =   268
(PID.TID 0000.0001) ADWRITE:  tapeFileCounter =   269
(PID.TID 0000.0001) ADWRITE:  tapeFileCounter =   270
(PID.TID 0000.0001) ADWRITE:  tapeFileCounter =   271
(PID.TID 0000.0001) ADWRITE:  tapeFileCounter =   272
(PID.TID 0000.0001) ADWRITE:  tapeFileCounter =   273
(PID.TID 0000.0001) ADWRITE:  tapeFileCounter =   274
(PID.TID 0000.0001) ADWRITE:  tapeFileCounter =   275
(PID.TID 0000.0001) ADWRITE: tid,vid, irec, length, prec(x2)=    41    36     1    15456  8 64 fname=tapelev2_36_the_main_loop_vveld
(PID.TID 0000.0001) ADWRITE:  tapeFileCounter =   276
(PID.TID 0000.0001) ADWRITE:  tapeFileCounter =   277
(PID.TID 0000.0001) ADWRITE:  tapeFileCounter =   278
(PID.TID 0000.0001) ADWRITE:  tapeFileCounter =   279
(PID.TID 0000.0001) ADWRITE:  tapeFileCounter =   280
(PID.TID 0000.0001) ADWRITE:  tapeFileCounter =   281
(PID.TID 0000.0001) ADWRITE:  tapeFileCounter =   282
(PID.TID 0000.0001) ADWRITE:  tapeFileCounter =   283
(PID.TID 0000.0001) ADWRITE:  tapeFileCounter =   284
(PID.TID 0000.0001) ADWRITE:  tapeFileCounter =   285
(PID.TID 0000.0001) ADWRITE:  tapeFileCounter =   286
(PID.TID 0000.0001) ADWRITE:  tapeFileCounter =   287
(PID.TID 0000.0001) ADWRITE:  tapeFileCounter =   288
(PID.TID 0000.0001) ADWRITE:  tapeFileCounter =   289
(PID.TID 0000.0001) ADWRITE:  tapeFileCounter =   290
(PID.TID 0000.0001) ADWRITE:  tapeFileCounter =   291
(PID.TID 0000.0001) ADWRITE:  tapeFileCounter =   292
(PID.TID 0000.0001) ADWRITE:  tapeFileCounter =   293
(PID.TID 0000.0001) ADWRITE:  tapeFileCounter =   294
(PID.TID 0000.0001) ADWRITE:  tapeFileCounter =   295
(PID.TID 0000.0001) ADWRITE:  tapeFileCounter =   296
(PID.TID 0000.0001) ADWRITE:  tapeFileCounter =   297
(PID.TID 0000.0001) ADWRITE:  tapeFileCounter =   298
(PID.TID 0000.0001) ADWRITE: tid,vid, irec, length, prec(x2)=    41    37     1      672  8 64 fname=tapelev2_37_the_main_loop_etanm1
(PID.TID 0000.0001) ADWRITE:  tapeFileCounter =   299
(PID.TID 0000.0001) ADWRITE: tid,vid, irec, length, prec(x2)=    41    38     1    15456  8 64 fname=tapelev2_38_the_main_loop_unm1
(PID.TID 0000.0001) ADWRITE:  tapeFileCounter =   300
(PID.TID 0000.0001) ADWRITE:  tapeFileCounter =   301
(PID.TID 0000.0001) ADWRITE:  tapeFileCounter =   302
(PID.TID 0000.0001) ADWRITE:  tapeFileCounter =   303
(PID.TID 0000.0001) ADWRITE:  tapeFileCounter =   304
(PID.TID 0000.0001) ADWRITE:  tapeFileCounter =   305
(PID.TID 0000.0001) ADWRITE:  tapeFileCounter =   306
(PID.TID 0000.0001) ADWRITE:  tapeFileCounter =   307
(PID.TID 0000.0001) ADWRITE:  tapeFileCounter =   308
(PID.TID 0000.0001) ADWRITE:  tapeFileCounter =   309
(PID.TID 0000.0001) ADWRITE:  tapeFileCounter =   310
(PID.TID 0000.0001) ADWRITE:  tapeFileCounter =   311
(PID.TID 0000.0001) ADWRITE:  tapeFileCounter =   312
(PID.TID 0000.0001) ADWRITE:  tapeFileCounter =   313
(PID.TID 0000.0001) ADWRITE:  tapeFileCounter =   314
(PID.TID 0000.0001) ADWRITE:  tapeFileCounter =   315
(PID.TID 0000.0001) ADWRITE:  tapeFileCounter =   316
(PID.TID 0000.0001) ADWRITE:  tapeFileCounter =   317
(PID.TID 0000.0001) ADWRITE:  tapeFileCounter =   318
(PID.TID 0000.0001) ADWRITE:  tapeFileCounter =   319
(PID.TID 0000.0001) ADWRITE:  tapeFileCounter =   320
(PID.TID 0000.0001) ADWRITE:  tapeFileCounter =   321
(PID.TID 0000.0001) ADWRITE:  tapeFileCounter =   322
(PID.TID 0000.0001) ADWRITE: tid,vid, irec, length, prec(x2)=    41    39     1    15456  8 64 fname=tapelev2_39_the_main_loop_vnm1
(PID.TID 0000.0001) ADWRITE:  tapeFileCounter =   323
(PID.TID 0000.0001) ADWRITE:  tapeFileCounter =   324
(PID.TID 0000.0001) ADWRITE:  tapeFileCounter =   325
(PID.TID 0000.0001) ADWRITE:  tapeFileCounter =   326
(PID.TID 0000.0001) ADWRITE:  tapeFileCounter =   327
(PID.TID 0000.0001) ADWRITE:  tapeFileCounter =   328
(PID.TID 0000.0001) ADWRITE:  tapeFileCounter =   329
(PID.TID 0000.0001) ADWRITE:  tapeFileCounter =   330
(PID.TID 0000.0001) ADWRITE:  tapeFileCounter =   331
(PID.TID 0000.0001) ADWRITE:  tapeFileCounter =   332
(PID.TID 0000.0001) ADWRITE:  tapeFileCounter =   333
(PID.TID 0000.0001) ADWRITE:  tapeFileCounter =   334
(PID.TID 0000.0001) ADWRITE:  tapeFileCounter =   335
(PID.TID 0000.0001) ADWRITE:  tapeFileCounter =   336
(PID.TID 0000.0001) ADWRITE:  tapeFileCounter =   337
(PID.TID 0000.0001) ADWRITE:  tapeFileCounter =   338
(PID.TID 0000.0001) ADWRITE:  tapeFileCounter =   339
(PID.TID 0000.0001) ADWRITE:  tapeFileCounter =   340
(PID.TID 0000.0001) ADWRITE:  tapeFileCounter =   341
(PID.TID 0000.0001) ADWRITE:  tapeFileCounter =   342
(PID.TID 0000.0001) ADWRITE:  tapeFileCounter =   343
(PID.TID 0000.0001) ADWRITE:  tapeFileCounter =   344
(PID.TID 0000.0001) ADWRITE:  tapeFileCounter =   345
(PID.TID 0000.0001) ADWRITE: tid,vid, irec, length, prec(x2)=    41    40     1      672  8 64 fname=tapelev2_40_the_main_loop_areamask0
(PID.TID 0000.0001) ADWRITE:  tapeFileCounter =   346
(PID.TID 0000.0001) ADWRITE: tid,vid, irec, length, prec(x2)=    41    41     1      672  8 64 fname=tapelev2_41_the_main_loop_areamask1
(PID.TID 0000.0001) ADWRITE:  tapeFileCounter =   347
(PID.TID 0000.0001) ADWRITE: tid,vid, irec, length, prec(x2)=    41    42     1      672  8 64 fname=tapelev2_42_the_main_loop_hflux0
(PID.TID 0000.0001) ADWRITE:  tapeFileCounter =   348
(PID.TID 0000.0001) ADWRITE: tid,vid, irec, length, prec(x2)=    41    43     1      672  8 64 fname=tapelev2_43_the_main_loop_hflux1
(PID.TID 0000.0001) ADWRITE:  tapeFileCounter =   349
(PID.TID 0000.0001) ADWRITE: tid,vid, irec, length, prec(x2)=    41    44     1      672  8 64 fname=tapelev2_44_the_main_loop_sflux0
(PID.TID 0000.0001) ADWRITE:  tapeFileCounter =   350
(PID.TID 0000.0001) ADWRITE: tid,vid, irec, length, prec(x2)=    41    45     1      672  8 64 fname=tapelev2_45_the_main_loop_sflux1
(PID.TID 0000.0001) ADWRITE:  tapeFileCounter =   351
(PID.TID 0000.0001) ADWRITE: tid,vid, irec, length, prec(x2)=    41    46     1      672  8 64 fname=tapelev2_46_the_main_loop_ustress0
(PID.TID 0000.0001) ADWRITE:  tapeFileCounter =   352
(PID.TID 0000.0001) ADWRITE: tid,vid, irec, length, prec(x2)=    41    47     1      672  8 64 fname=tapelev2_47_the_main_loop_ustress1
(PID.TID 0000.0001) ADWRITE:  tapeFileCounter =   353
(PID.TID 0000.0001) ADWRITE: tid,vid, irec, length, prec(x2)=    41    48     1      672  8 64 fname=tapelev2_48_the_main_loop_vstress0
(PID.TID 0000.0001) ADWRITE:  tapeFileCounter =   354
(PID.TID 0000.0001) ADWRITE: tid,vid, irec, length, prec(x2)=    41    49     1      672  8 64 fname=tapelev2_49_the_main_loop_vstress1
(PID.TID 0000.0001) ADWRITE:  tapeFileCounter =   355
(PID.TID 0000.0001) ADWRITE: tid,vid, irec, length, prec(x2)=    41    50     1      672  8 64 fname=tapelev2_50_the_main_loop_wspeed0
(PID.TID 0000.0001) ADWRITE:  tapeFileCounter =   356
(PID.TID 0000.0001) ADWRITE: tid,vid, irec, length, prec(x2)=    41    51     1      672  8 64 fname=tapelev2_51_the_main_loop_wspeed1
(PID.TID 0000.0001) ADWRITE:  tapeFileCounter =   357
(PID.TID 0000.0001) ADWRITE: tid,vid, irec, length, prec(x2)=    41    54     1      672  8 64 fname=tapelev2_54_the_main_loop_runoff0
(PID.TID 0000.0001) ADWRITE:  tapeFileCounter =   358
(PID.TID 0000.0001) ADWRITE: tid,vid, irec, length, prec(x2)=    41    55     1      672  8 64 fname=tapelev2_55_the_main_loop_runoff1
(PID.TID 0000.0001) ADWRITE:  tapeFileCounter =   359
(PID.TID 0000.0001) ADWRITE: tid,vid, irec, length, prec(x2)=    41    56     1      672  8 64 fname=tapelev2_56_the_main_loop_apressure0
(PID.TID 0000.0001) ADWRITE:  tapeFileCounter =   360
(PID.TID 0000.0001) ADWRITE: tid,vid, irec, length, prec(x2)=    41    57     1      672  8 64 fname=tapelev2_57_the_main_loop_apressure1
(PID.TID 0000.0001) ADWRITE:  tapeFileCounter =   361
(PID.TID 0000.0001) ADWRITE: tid,vid, irec, length, prec(x2)=    41    58     1      672  8 64 fname=tapelev2_58_the_main_loop_siceload
(PID.TID 0000.0001) ADWRITE:  tapeFileCounter =   362
(PID.TID 0000.0001) ADWRITE: tid,vid, irec, length, prec(x2)=    41    59     1      672  8 64 fname=tapelev2_59_the_main_loop_climsss0
(PID.TID 0000.0001) ADWRITE:  tapeFileCounter =   363
(PID.TID 0000.0001) ADWRITE: tid,vid, irec, length, prec(x2)=    41    60     1      672  8 64 fname=tapelev2_60_the_main_loop_climsss1
(PID.TID 0000.0001) ADWRITE:  tapeFileCounter =   364
(PID.TID 0000.0001) ADWRITE: tid,vid, irec, length, prec(x2)=    41    61     1      672  8 64 fname=tapelev2_61_the_main_loop_climsst0
(PID.TID 0000.0001) ADWRITE:  tapeFileCounter =   365
(PID.TID 0000.0001) ADWRITE: tid,vid, irec, length, prec(x2)=    41    62     1      672  8 64 fname=tapelev2_62_the_main_loop_climsst1
(PID.TID 0000.0001) ADWRITE:  tapeFileCounter =   366
(PID.TID 0000.0001) ADWRITE: tid,vid, irec, length, prec(x2)=    41    63     1      672  8 64 fname=tapelev2_63_the_main_loop_saltflx0
(PID.TID 0000.0001) ADWRITE:  tapeFileCounter =   367
(PID.TID 0000.0001) ADWRITE: tid,vid, irec, length, prec(x2)=    41    64     1      672  8 64 fname=tapelev2_64_the_main_loop_saltflx1
(PID.TID 0000.0001) ADWRITE:  tapeFileCounter =   368
(PID.TID 0000.0001) ADWRITE: tid,vid, irec, length, prec(x2)=    41    65     1      672  8 64 fname=tapelev2_65_the_main_loop_aqh0
(PID.TID 0000.0001) ADWRITE:  tapeFileCounter =   369
(PID.TID 0000.0001) ADWRITE: tid,vid, irec, length, prec(x2)=    41    66     1      672  8 64 fname=tapelev2_66_the_main_loop_aqh1
(PID.TID 0000.0001) ADWRITE:  tapeFileCounter =   370
(PID.TID 0000.0001) ADWRITE: tid,vid, irec, length, prec(x2)=    41    67     1      672  8 64 fname=tapelev2_67_the_main_loop_atemp0
(PID.TID 0000.0001) ADWRITE:  tapeFileCounter =   371
(PID.TID 0000.0001) ADWRITE: tid,vid, irec, length, prec(x2)=    41    68     1      672  8 64 fname=tapelev2_68_the_main_loop_atemp1
(PID.TID 0000.0001) ADWRITE:  tapeFileCounter =   372
(PID.TID 0000.0001) ADWRITE: tid,vid, irec, length, prec(x2)=    41    69     1      672  8 64 fname=tapelev2_69_the_main_loop_precip0
(PID.TID 0000.0001) ADWRITE:  tapeFileCounter =   373
(PID.TID 0000.0001) ADWRITE: tid,vid, irec, length, prec(x2)=    41    70     1      672  8 64 fname=tapelev2_70_the_main_loop_precip1
(PID.TID 0000.0001) ADWRITE:  tapeFileCounter =   374
(PID.TID 0000.0001) ADWRITE: tid,vid, irec, length, prec(x2)=    41    73     1      672  8 64 fname=tapelev2_73_the_main_loop_snowprecip0
(PID.TID 0000.0001) ADWRITE:  tapeFileCounter =   375
(PID.TID 0000.0001) ADWRITE: tid,vid, irec, length, prec(x2)=    41    74     1      672  8 64 fname=tapelev2_74_the_main_loop_snowprecip1
(PID.TID 0000.0001) ADWRITE:  tapeFileCounter =   376
(PID.TID 0000.0001) ADWRITE: tid,vid, irec, length, prec(x2)=    41    75     1      672  8 64 fname=tapelev2_75_the_main_loop_swdown0
(PID.TID 0000.0001) ADWRITE:  tapeFileCounter =   377
(PID.TID 0000.0001) ADWRITE: tid,vid, irec, length, prec(x2)=    41    76     1      672  8 64 fname=tapelev2_76_the_main_loop_swdown1
(PID.TID 0000.0001) ADWRITE:  tapeFileCounter =   378
(PID.TID 0000.0001) ADWRITE: tid,vid, irec, length, prec(x2)=    41    77     1      672  8 64 fname=tapelev2_77_the_main_loop_lwdown0
(PID.TID 0000.0001) ADWRITE:  tapeFileCounter =   379
(PID.TID 0000.0001) ADWRITE: tid,vid, irec, length, prec(x2)=    41    78     1      672  8 64 fname=tapelev2_78_the_main_loop_lwdown1
(PID.TID 0000.0001) ADWRITE:  tapeFileCounter =   380
(PID.TID 0000.0001) ADWRITE: tid,vid, irec, length, prec(x2)=    41    79     1      672  8 64 fname=tapelev2_79_the_main_loop_uwind0
(PID.TID 0000.0001) ADWRITE:  tapeFileCounter =   381
(PID.TID 0000.0001) ADWRITE: tid,vid, irec, length, prec(x2)=    41    80     1      672  8 64 fname=tapelev2_80_the_main_loop_uwind1
(PID.TID 0000.0001) ADWRITE:  tapeFileCounter =   382
(PID.TID 0000.0001) ADWRITE: tid,vid, irec, length, prec(x2)=    41    81     1      672  8 64 fname=tapelev2_81_the_main_loop_vwind0
(PID.TID 0000.0001) ADWRITE:  tapeFileCounter =   383
(PID.TID 0000.0001) ADWRITE: tid,vid, irec, length, prec(x2)=    41    82     1      672  8 64 fname=tapelev2_82_the_main_loop_vwind1
(PID.TID 0000.0001) ADWRITE:  tapeFileCounter =   384
(PID.TID 0000.0001) ADWRITE: tid,vid, irec, length, prec(x2)=    41    83     1     6048  8 64 fname=tapelev2_83_the_main_loop_xx_gentim2d
(PID.TID 0000.0001) ADWRITE:  tapeFileCounter =   385
(PID.TID 0000.0001) ADWRITE:  tapeFileCounter =   386
(PID.TID 0000.0001) ADWRITE:  tapeFileCounter =   387
(PID.TID 0000.0001) ADWRITE:  tapeFileCounter =   388
(PID.TID 0000.0001) ADWRITE:  tapeFileCounter =   389
(PID.TID 0000.0001) ADWRITE:  tapeFileCounter =   390
(PID.TID 0000.0001) ADWRITE:  tapeFileCounter =   391
(PID.TID 0000.0001) ADWRITE:  tapeFileCounter =   392
(PID.TID 0000.0001) ADWRITE:  tapeFileCounter =   393
(PID.TID 0000.0001) ADWRITE: tid,vid, irec, length, prec(x2)=    41    84     1     6048  8 64 fname=tapelev2_84_the_main_loop_xx_gentim2d0
(PID.TID 0000.0001) ADWRITE:  tapeFileCounter =   394
(PID.TID 0000.0001) ADWRITE:  tapeFileCounter =   395
(PID.TID 0000.0001) ADWRITE:  tapeFileCounter =   396
(PID.TID 0000.0001) ADWRITE:  tapeFileCounter =   397
(PID.TID 0000.0001) ADWRITE:  tapeFileCounter =   398
(PID.TID 0000.0001) ADWRITE:  tapeFileCounter =   399
(PID.TID 0000.0001) ADWRITE:  tapeFileCounter =   400
(PID.TID 0000.0001) ADWRITE:  tapeFileCounter =   401
(PID.TID 0000.0001) ADWRITE:  tapeFileCounter =   402
(PID.TID 0000.0001) ADWRITE: tid,vid, irec, length, prec(x2)=    41    85     1     6048  8 64 fname=tapelev2_85_the_main_loop_xx_gentim2d1
(PID.TID 0000.0001) ADWRITE:  tapeFileCounter =   403
(PID.TID 0000.0001) ADWRITE:  tapeFileCounter =   404
(PID.TID 0000.0001) ADWRITE:  tapeFileCounter =   405
(PID.TID 0000.0001) ADWRITE:  tapeFileCounter =   406
(PID.TID 0000.0001) ADWRITE:  tapeFileCounter =   407
(PID.TID 0000.0001) ADWRITE:  tapeFileCounter =   408
(PID.TID 0000.0001) ADWRITE:  tapeFileCounter =   409
(PID.TID 0000.0001) ADWRITE:  tapeFileCounter =   410
(PID.TID 0000.0001) ADWRITE:  tapeFileCounter =   411
(PID.TID 0000.0001) ADWRITE: tid,vid, irec, length, prec(x2)=    41    87     1      672  8 64 fname=tapelev2_87_the_main_loop_phihydlow
(PID.TID 0000.0001) ADWRITE:  tapeFileCounter =   412
(PID.TID 0000.0001) ADWRITE: tid,vid, irec, length, prec(x2)=    41    88     1      672  8 64 fname=tapelev2_88_the_main_loop_area
(PID.TID 0000.0001) ADWRITE:  tapeFileCounter =   413
(PID.TID 0000.0001) ADWRITE: tid,vid, irec, length, prec(x2)=    41    89     1      672  8 64 fname=tapelev2_89_the_main_loop_heff
(PID.TID 0000.0001) ADWRITE:  tapeFileCounter =   414
(PID.TID 0000.0001) ADWRITE: tid,vid, irec, length, prec(x2)=    41    90     1      672  8 64 fname=tapelev2_90_the_main_loop_hsnow
(PID.TID 0000.0001) ADWRITE:  tapeFileCounter =   415
(PID.TID 0000.0001) ADWRITE: tid,vid, irec, length, prec(x2)=    41    92     1      672  8 64 fname=tapelev2_92_the_main_loop_uice
(PID.TID 0000.0001) ADWRITE:  tapeFileCounter =   416
(PID.TID 0000.0001) ADWRITE: tid,vid, irec, length, prec(x2)=    41    93     1      672  8 64 fname=tapelev2_93_the_main_loop_vice
(PID.TID 0000.0001) ADWRITE:  tapeFileCounter =   417
(PID.TID 0000.0001) ADWRITE: tid,vid, irec, length, prec(x2)=    41    96     1     4704  8 64 fname=tapelev2_96_the_main_loop_tices
(PID.TID 0000.0001) ADWRITE:  tapeFileCounter =   418
(PID.TID 0000.0001) ADWRITE:  tapeFileCounter =   419
(PID.TID 0000.0001) ADWRITE:  tapeFileCounter =   420
(PID.TID 0000.0001) ADWRITE:  tapeFileCounter =   421
(PID.TID 0000.0001) ADWRITE:  tapeFileCounter =   422
(PID.TID 0000.0001) ADWRITE:  tapeFileCounter =   423
(PID.TID 0000.0001) ADWRITE:  tapeFileCounter =   424
(PID.TID 0000.0001) ADWRITE: tid,vid, irec, length, prec(x2)=    41    97     1      672  8 64 fname=tapelev2_97_the_main_loop_dwatn
(PID.TID 0000.0001) ADWRITE:  tapeFileCounter =   425
(PID.TID 0000.0001) ADWRITE: tid,vid, irec, length, prec(x2)=    41    98     1      672  8 64 fname=tapelev2_98_the_main_loop_stressdivergencex
(PID.TID 0000.0001) ADWRITE:  tapeFileCounter =   426
(PID.TID 0000.0001) ADWRITE: tid,vid, irec, length, prec(x2)=    41    99     1      672  8 64 fname=tapelev2_99_the_main_loop_stressdivergencey
(PID.TID 0000.0001) ADWRITE:  tapeFileCounter =   427
(PID.TID 0000.0001) ADWRITE: tid,vid, irec, length, prec(x2)=    41   100     1      672  8 64 fname=tapelev2_100_the_main_loop_seaice_sigma1
(PID.TID 0000.0001) ADWRITE:  tapeFileCounter =   428
(PID.TID 0000.0001) ADWRITE: tid,vid, irec, length, prec(x2)=    41   101     1      672  8 64 fname=tapelev2_101_the_main_loop_seaice_sigma2
(PID.TID 0000.0001) ADWRITE:  tapeFileCounter =   429
(PID.TID 0000.0001) ADWRITE: tid,vid, irec, length, prec(x2)=    41   102     1      672  8 64 fname=tapelev2_102_the_main_loop_seaice_sigma12
(PID.TID 0000.0001) ADWRITE:  tapeFileCounter =   430
(PID.TID 0000.0001) ADWRITE: tid,vid, irec, length, prec(x2)=    41   103     1      672  8 64 fname=tapelev2_103_the_main_loop_hsalt
(PID.TID 0000.0001) ADWRITE:  tapeFileCounter =   431
(PID.TID 0000.0001) whio : write lev 2 rec   1
(PID.TID 0000.0001)  MDS_READ_FIELD: opening global file: xx_atemp.effective.0000000001.data
(PID.TID 0000.0001)  MDS_READ_FIELD: opening global file: xx_atemp.effective.0000000001.data
(PID.TID 0000.0001) EXF_SET_FLD: processing field "climsss",  file: SSS_monthly.labsea1979
(PID.TID 0000.0001) EXF_SET_FLD:   myIter, count0, count1:         0      1      2
(PID.TID 0000.0001) EXF_SET_FLD:   first, changed, fac:   T   F    0.50000000000000000
(PID.TID 0000.0001) EXF_SET_FLD: field "climsss", it=         0, loading rec=     1
(PID.TID 0000.0001) EXF_SET_FLD:   from file: "SSS_monthly.labsea1979"
(PID.TID 0000.0001)  MDS_READ_FIELD: opening global file: SSS_monthly.labsea1979
(PID.TID 0000.0001) EXF_SET_FLD: field "climsss", it=         0, loading rec=     2
(PID.TID 0000.0001) EXF_SET_FLD:   from file: "SSS_monthly.labsea1979"
(PID.TID 0000.0001)  MDS_READ_FIELD: opening global file: SSS_monthly.labsea1979
(PID.TID 0000.0001) EXF_SET_FLD: processing field "uwind",  file: u10m.labsea1979
(PID.TID 0000.0001) EXF_SET_FLD:   myIter, count0, count1:         0      1      2
(PID.TID 0000.0001) EXF_SET_FLD:   first, changed, fac:   T   F    0.50000000000000000
(PID.TID 0000.0001) EXF_SET_FLD: field "uwind", it=         0, loading rec=     1
(PID.TID 0000.0001) EXF_SET_FLD:   from file: "u10m.labsea1979"
(PID.TID 0000.0001)  MDS_READ_FIELD: opening global file: u10m.labsea1979
(PID.TID 0000.0001) EXF_SET_FLD: field "uwind", it=         0, loading rec=     2
(PID.TID 0000.0001) EXF_SET_FLD:   from file: "u10m.labsea1979"
(PID.TID 0000.0001)  MDS_READ_FIELD: opening global file: u10m.labsea1979
(PID.TID 0000.0001) EXF_SET_FLD: processing field "vwind",  file: v10m.labsea1979
(PID.TID 0000.0001) EXF_SET_FLD:   myIter, count0, count1:         0      1      2
(PID.TID 0000.0001) EXF_SET_FLD:   first, changed, fac:   T   F    0.50000000000000000
(PID.TID 0000.0001) EXF_SET_FLD: field "vwind", it=         0, loading rec=     1
(PID.TID 0000.0001) EXF_SET_FLD:   from file: "v10m.labsea1979"
(PID.TID 0000.0001)  MDS_READ_FIELD: opening global file: v10m.labsea1979
(PID.TID 0000.0001) EXF_SET_FLD: field "vwind", it=         0, loading rec=     2
(PID.TID 0000.0001) EXF_SET_FLD:   from file: "v10m.labsea1979"
(PID.TID 0000.0001)  MDS_READ_FIELD: opening global file: v10m.labsea1979
(PID.TID 0000.0001) EXF_SET_FLD: processing field "atemp",  file: tair.labsea1979
(PID.TID 0000.0001) EXF_SET_FLD:   myIter, count0, count1:         0      1      2
(PID.TID 0000.0001) EXF_SET_FLD:   first, changed, fac:   T   F    0.50000000000000000
(PID.TID 0000.0001) EXF_SET_FLD: field "atemp", it=         0, loading rec=     1
(PID.TID 0000.0001) EXF_SET_FLD:   from file: "tair.labsea1979"
(PID.TID 0000.0001)  MDS_READ_FIELD: opening global file: tair.labsea1979
(PID.TID 0000.0001) EXF_SET_FLD: field "atemp", it=         0, loading rec=     2
(PID.TID 0000.0001) EXF_SET_FLD:   from file: "tair.labsea1979"
(PID.TID 0000.0001)  MDS_READ_FIELD: opening global file: tair.labsea1979
(PID.TID 0000.0001) EXF_SET_FLD: processing field "aqh",  file: qa.labsea1979
(PID.TID 0000.0001) EXF_SET_FLD:   myIter, count0, count1:         0      1      2
(PID.TID 0000.0001) EXF_SET_FLD:   first, changed, fac:   T   F    0.50000000000000000
(PID.TID 0000.0001) EXF_SET_FLD: field "aqh", it=         0, loading rec=     1
(PID.TID 0000.0001) EXF_SET_FLD:   from file: "qa.labsea1979"
(PID.TID 0000.0001)  MDS_READ_FIELD: opening global file: qa.labsea1979
(PID.TID 0000.0001) EXF_SET_FLD: field "aqh", it=         0, loading rec=     2
(PID.TID 0000.0001) EXF_SET_FLD:   from file: "qa.labsea1979"
(PID.TID 0000.0001)  MDS_READ_FIELD: opening global file: qa.labsea1979
(PID.TID 0000.0001) EXF_SET_FLD: processing field "precip",  file: prate.labsea1979
(PID.TID 0000.0001) EXF_SET_FLD:   myIter, count0, count1:         0      1      2
(PID.TID 0000.0001) EXF_SET_FLD:   first, changed, fac:   T   F    0.50000000000000000
(PID.TID 0000.0001) EXF_SET_FLD: field "precip", it=         0, loading rec=     1
(PID.TID 0000.0001) EXF_SET_FLD:   from file: "prate.labsea1979"
(PID.TID 0000.0001)  MDS_READ_FIELD: opening global file: prate.labsea1979
(PID.TID 0000.0001) EXF_SET_FLD: field "precip", it=         0, loading rec=     2
(PID.TID 0000.0001) EXF_SET_FLD:   from file: "prate.labsea1979"
(PID.TID 0000.0001)  MDS_READ_FIELD: opening global file: prate.labsea1979
(PID.TID 0000.0001) EXF_SET_FLD: processing field "swdown",  file: fsh.labsea1979
(PID.TID 0000.0001) EXF_SET_FLD:   myIter, count0, count1:         0      1      2
(PID.TID 0000.0001) EXF_SET_FLD:   first, changed, fac:   T   F    0.50000000000000000
(PID.TID 0000.0001) EXF_SET_FLD: field "swdown", it=         0, loading rec=     1
(PID.TID 0000.0001) EXF_SET_FLD:   from file: "fsh.labsea1979"
(PID.TID 0000.0001)  MDS_READ_FIELD: opening global file: fsh.labsea1979
(PID.TID 0000.0001) EXF_SET_FLD: field "swdown", it=         0, loading rec=     2
(PID.TID 0000.0001) EXF_SET_FLD:   from file: "fsh.labsea1979"
(PID.TID 0000.0001)  MDS_READ_FIELD: opening global file: fsh.labsea1979
(PID.TID 0000.0001) EXF_SET_FLD: processing field "lwdown",  file: flo.labsea1979
(PID.TID 0000.0001) EXF_SET_FLD:   myIter, count0, count1:         0      1      2
(PID.TID 0000.0001) EXF_SET_FLD:   first, changed, fac:   T   F    0.50000000000000000
(PID.TID 0000.0001) EXF_SET_FLD: field "lwdown", it=         0, loading rec=     1
(PID.TID 0000.0001) EXF_SET_FLD:   from file: "flo.labsea1979"
(PID.TID 0000.0001)  MDS_READ_FIELD: opening global file: flo.labsea1979
(PID.TID 0000.0001) EXF_SET_FLD: field "lwdown", it=         0, loading rec=     2
(PID.TID 0000.0001) EXF_SET_FLD:   from file: "flo.labsea1979"
(PID.TID 0000.0001)  MDS_READ_FIELD: opening global file: flo.labsea1979
DEBUG_STATS_RL: Uice pre  iter (SEAICE_LSR  1)  min=  0.00000000000000E+00
DEBUG_STATS_RL: Uice pre  iter (SEAICE_LSR  1)  max=  0.00000000000000E+00
DEBUG_STATS_RL: Uice pre  iter (SEAICE_LSR  1) mean=  0.00000000000000E+00
DEBUG_STATS_RL: Uice pre  iter (SEAICE_LSR  1) S.D.=  0.00000000000000E+00
DEBUG_STATS_RL: Vice pre  iter (SEAICE_LSR  1)  min=  0.00000000000000E+00
DEBUG_STATS_RL: Vice pre  iter (SEAICE_LSR  1)  max=  0.00000000000000E+00
DEBUG_STATS_RL: Vice pre  iter (SEAICE_LSR  1) mean=  0.00000000000000E+00
DEBUG_STATS_RL: Vice pre  iter (SEAICE_LSR  1) S.D.=  0.00000000000000E+00
DEBUG_STATS_RL: Uice pre  iter (SEAICE_LSR  2)  min= -4.74478293331770E-04
DEBUG_STATS_RL: Uice pre  iter (SEAICE_LSR  2)  max=  5.19863184318560E-03
DEBUG_STATS_RL: Uice pre  iter (SEAICE_LSR  2) mean=  1.15969103043184E-03
DEBUG_STATS_RL: Uice pre  iter (SEAICE_LSR  2) S.D.=  1.37050304765703E-03
DEBUG_STATS_RL: Vice pre  iter (SEAICE_LSR  2)  min= -2.82028703630720E-03
DEBUG_STATS_RL: Vice pre  iter (SEAICE_LSR  2)  max=  8.55909305417855E-04
DEBUG_STATS_RL: Vice pre  iter (SEAICE_LSR  2) mean= -7.32602707228794E-04
DEBUG_STATS_RL: Vice pre  iter (SEAICE_LSR  2) S.D.=  9.65742386214621E-04
DEBUG_STATS_RL:                EtaN (DYNAMICS)  min=  0.00000000000000E+00
DEBUG_STATS_RL:                EtaN (DYNAMICS)  max=  0.00000000000000E+00
DEBUG_STATS_RL:                EtaN (DYNAMICS) mean=  0.00000000000000E+00
DEBUG_STATS_RL:                EtaN (DYNAMICS) S.D.=  0.00000000000000E+00
DEBUG_STATS_RL:                Uvel (DYNAMICS)  min=  0.00000000000000E+00
DEBUG_STATS_RL:                Uvel (DYNAMICS)  max=  0.00000000000000E+00
DEBUG_STATS_RL:                Uvel (DYNAMICS) mean=  0.00000000000000E+00
DEBUG_STATS_RL:                Uvel (DYNAMICS) S.D.=  0.00000000000000E+00
DEBUG_STATS_RL:                Vvel (DYNAMICS)  min=  0.00000000000000E+00
DEBUG_STATS_RL:                Vvel (DYNAMICS)  max=  0.00000000000000E+00
DEBUG_STATS_RL:                Vvel (DYNAMICS) mean=  0.00000000000000E+00
DEBUG_STATS_RL:                Vvel (DYNAMICS) S.D.=  0.00000000000000E+00
DEBUG_STATS_RL:                Wvel (DYNAMICS)  min=  0.00000000000000E+00
DEBUG_STATS_RL:                Wvel (DYNAMICS)  max=  0.00000000000000E+00
DEBUG_STATS_RL:                Wvel (DYNAMICS) mean=  0.00000000000000E+00
DEBUG_STATS_RL:                Wvel (DYNAMICS) S.D.=  0.00000000000000E+00
DEBUG_STATS_RL:               Theta (DYNAMICS)  min= -1.41036188602448E+00
DEBUG_STATS_RL:               Theta (DYNAMICS)  max=  1.33330764770508E+01
DEBUG_STATS_RL:               Theta (DYNAMICS) mean=  2.90475522269124E+00
DEBUG_STATS_RL:               Theta (DYNAMICS) S.D.=  2.44037465259698E+00
DEBUG_STATS_RL:                Salt (DYNAMICS)  min=  3.01286983489990E+01
DEBUG_STATS_RL:                Salt (DYNAMICS)  max=  3.54506225585938E+01
DEBUG_STATS_RL:                Salt (DYNAMICS) mean=  3.40845304745500E+01
DEBUG_STATS_RL:                Salt (DYNAMICS) S.D.=  9.00924836964808E-01
DEBUG_STATS_RL:                  Gu (DYNAMICS)  min= -2.00599447531986E-02
DEBUG_STATS_RL:                  Gu (DYNAMICS)  max=  1.04076999541495E-02
DEBUG_STATS_RL:                  Gu (DYNAMICS) mean= -2.58939542765896E-03
DEBUG_STATS_RL:                  Gu (DYNAMICS) S.D.=  4.84472279217175E-03
DEBUG_STATS_RL:                  Gv (DYNAMICS)  min= -2.97181268783620E-02
DEBUG_STATS_RL:                  Gv (DYNAMICS)  max=  1.05795727308992E-02
DEBUG_STATS_RL:                  Gv (DYNAMICS) mean= -1.51075895161939E-03
DEBUG_STATS_RL:                  Gv (DYNAMICS) S.D.=  5.23505354600419E-03
DEBUG_STATS_RL:               GuNm1 (DYNAMICS)  min=  0.00000000000000E+00
DEBUG_STATS_RL:               GuNm1 (DYNAMICS)  max=  0.00000000000000E+00
DEBUG_STATS_RL:               GuNm1 (DYNAMICS) mean=  0.00000000000000E+00
DEBUG_STATS_RL:               GuNm1 (DYNAMICS) S.D.=  0.00000000000000E+00
DEBUG_STATS_RL:               GvNm1 (DYNAMICS)  min=  0.00000000000000E+00
DEBUG_STATS_RL:               GvNm1 (DYNAMICS)  max=  0.00000000000000E+00
DEBUG_STATS_RL:               GvNm1 (DYNAMICS) mean=  0.00000000000000E+00
DEBUG_STATS_RL:               GvNm1 (DYNAMICS) S.D.=  0.00000000000000E+00
DEBUG_STATS_RL:               GtNm1 (DYNAMICS)  min=  0.00000000000000E+00
DEBUG_STATS_RL:               GtNm1 (DYNAMICS)  max=  0.00000000000000E+00
DEBUG_STATS_RL:               GtNm1 (DYNAMICS) mean=  0.00000000000000E+00
DEBUG_STATS_RL:               GtNm1 (DYNAMICS) S.D.=  0.00000000000000E+00
DEBUG_STATS_RL:               GsNm1 (DYNAMICS)  min=  0.00000000000000E+00
DEBUG_STATS_RL:               GsNm1 (DYNAMICS)  max=  0.00000000000000E+00
DEBUG_STATS_RL:               GsNm1 (DYNAMICS) mean=  0.00000000000000E+00
DEBUG_STATS_RL:               GsNm1 (DYNAMICS) S.D.=  0.00000000000000E+00
(PID.TID 0000.0001) SOLVE_FOR_PRESSURE: putPmEinXvector =    F
DEBUG_STATS_RL:    cg2d_b (SOLVE_FOR_PRESSURE)  min= -6.15797366908278E+03
DEBUG_STATS_RL:    cg2d_b (SOLVE_FOR_PRESSURE)  max=  2.03762696322118E+03
DEBUG_STATS_RL:    cg2d_b (SOLVE_FOR_PRESSURE) mean=  2.40637139844087E-14
DEBUG_STATS_RL:    cg2d_b (SOLVE_FOR_PRESSURE) S.D.=  8.03730450548215E+02
 cg2d: Sum(rhs),rhsMax =   7.91033905045424E-16  9.91122157459750E-01
DEBUG_STATS_RL:    cg2d_x (SOLVE_FOR_PRESSURE)  min= -7.77200124675132E-01
DEBUG_STATS_RL:    cg2d_x (SOLVE_FOR_PRESSURE)  max=  2.02552651121663E+00
DEBUG_STATS_RL:    cg2d_x (SOLVE_FOR_PRESSURE) mean= -8.58037095103906E-03
DEBUG_STATS_RL:    cg2d_x (SOLVE_FOR_PRESSURE) S.D.=  4.14863218307968E-01
DEBUG_STATS_RL:          Uvel (THERMODYNAMICS)  min= -1.97613285723242E-02
DEBUG_STATS_RL:          Uvel (THERMODYNAMICS)  max=  1.31897193240012E-02
DEBUG_STATS_RL:          Uvel (THERMODYNAMICS) mean= -7.76915115649382E-04
DEBUG_STATS_RL:          Uvel (THERMODYNAMICS) S.D.=  3.97168834923499E-03
DEBUG_STATS_RL:          Vvel (THERMODYNAMICS)  min= -1.13773235335529E-02
DEBUG_STATS_RL:          Vvel (THERMODYNAMICS)  max=  2.04284639774261E-02
DEBUG_STATS_RL:          Vvel (THERMODYNAMICS) mean=  7.24190880687442E-04
DEBUG_STATS_RL:          Vvel (THERMODYNAMICS) S.D.=  4.28907995073846E-03
DEBUG_STATS_RL:          Wvel (THERMODYNAMICS)  min= -4.27131465138430E-05
DEBUG_STATS_RL:          Wvel (THERMODYNAMICS)  max=  1.16530364658749E-04
DEBUG_STATS_RL:          Wvel (THERMODYNAMICS) mean= -4.07763417598552E-07
DEBUG_STATS_RL:          Wvel (THERMODYNAMICS) S.D.=  1.80149904412009E-05
DEBUG_STATS_RL:         Theta (THERMODYNAMICS)  min= -1.41019615972461E+00
DEBUG_STATS_RL:         Theta (THERMODYNAMICS)  max=  1.32440592110212E+01
DEBUG_STATS_RL:         Theta (THERMODYNAMICS) mean=  2.49735783552472E+00
DEBUG_STATS_RL:         Theta (THERMODYNAMICS) S.D.=  2.45807980529386E+00
DEBUG_STATS_RL:          Salt (THERMODYNAMICS)  min=  2.76560994014067E+01
DEBUG_STATS_RL:          Salt (THERMODYNAMICS)  max=  3.54507778736995E+01
DEBUG_STATS_RL:          Salt (THERMODYNAMICS) mean=  3.39623217189232E+01
DEBUG_STATS_RL:          Salt (THERMODYNAMICS) S.D.=  1.10108958710508E+00
DEBUG_STATS_RL:         GtNm1 (THERMODYNAMICS)  min=  0.00000000000000E+00
DEBUG_STATS_RL:         GtNm1 (THERMODYNAMICS)  max=  0.00000000000000E+00
DEBUG_STATS_RL:         GtNm1 (THERMODYNAMICS) mean=  0.00000000000000E+00
DEBUG_STATS_RL:         GtNm1 (THERMODYNAMICS) S.D.=  0.00000000000000E+00
DEBUG_STATS_RL:         GsNm1 (THERMODYNAMICS)  min=  0.00000000000000E+00
DEBUG_STATS_RL:         GsNm1 (THERMODYNAMICS)  max=  0.00000000000000E+00
DEBUG_STATS_RL:         GsNm1 (THERMODYNAMICS) mean=  0.00000000000000E+00
DEBUG_STATS_RL:         GsNm1 (THERMODYNAMICS) S.D.=  0.00000000000000E+00
(PID.TID 0000.0001)  MDS_READ_FIELD: opening global file: xx_atemp.effective.0000000001.data
(PID.TID 0000.0001) EXF_SET_FLD: processing field "climsss",  file: SSS_monthly.labsea1979
(PID.TID 0000.0001) EXF_SET_FLD:   myIter, count0, count1:         1      1      2
(PID.TID 0000.0001) EXF_SET_FLD:   first, changed, fac:   F   F    0.49863387978142082
(PID.TID 0000.0001) EXF_SET_FLD: processing field "uwind",  file: u10m.labsea1979
(PID.TID 0000.0001) EXF_SET_FLD:   myIter, count0, count1:         1      1      2
(PID.TID 0000.0001) EXF_SET_FLD:   first, changed, fac:   F   F    0.49863387978142082
(PID.TID 0000.0001) EXF_SET_FLD: processing field "vwind",  file: v10m.labsea1979
(PID.TID 0000.0001) EXF_SET_FLD:   myIter, count0, count1:         1      1      2
(PID.TID 0000.0001) EXF_SET_FLD:   first, changed, fac:   F   F    0.49863387978142082
(PID.TID 0000.0001) EXF_SET_FLD: processing field "atemp",  file: tair.labsea1979
(PID.TID 0000.0001) EXF_SET_FLD:   myIter, count0, count1:         1      1      2
(PID.TID 0000.0001) EXF_SET_FLD:   first, changed, fac:   F   F    0.49863387978142082
(PID.TID 0000.0001) EXF_SET_FLD: processing field "aqh",  file: qa.labsea1979
(PID.TID 0000.0001) EXF_SET_FLD:   myIter, count0, count1:         1      1      2
(PID.TID 0000.0001) EXF_SET_FLD:   first, changed, fac:   F   F    0.49863387978142082
(PID.TID 0000.0001) EXF_SET_FLD: processing field "precip",  file: prate.labsea1979
(PID.TID 0000.0001) EXF_SET_FLD:   myIter, count0, count1:         1      1      2
(PID.TID 0000.0001) EXF_SET_FLD:   first, changed, fac:   F   F    0.49863387978142082
(PID.TID 0000.0001) EXF_SET_FLD: processing field "swdown",  file: fsh.labsea1979
(PID.TID 0000.0001) EXF_SET_FLD:   myIter, count0, count1:         1      1      2
(PID.TID 0000.0001) EXF_SET_FLD:   first, changed, fac:   F   F    0.49863387978142082
(PID.TID 0000.0001) EXF_SET_FLD: processing field "lwdown",  file: flo.labsea1979
(PID.TID 0000.0001) EXF_SET_FLD:   myIter, count0, count1:         1      1      2
(PID.TID 0000.0001) EXF_SET_FLD:   first, changed, fac:   F   F    0.49863387978142082
DEBUG_STATS_RL: Uice pre  iter (SEAICE_LSR  1)  min= -1.15942749827435E-03
DEBUG_STATS_RL: Uice pre  iter (SEAICE_LSR  1)  max=  1.20418167656252E-02
DEBUG_STATS_RL: Uice pre  iter (SEAICE_LSR  1) mean=  2.64506216410235E-03
DEBUG_STATS_RL: Uice pre  iter (SEAICE_LSR  1) S.D.=  3.13774756817759E-03
DEBUG_STATS_RL: Vice pre  iter (SEAICE_LSR  1)  min= -5.99336397479914E-03
DEBUG_STATS_RL: Vice pre  iter (SEAICE_LSR  1)  max=  4.08760906980194E-03
DEBUG_STATS_RL: Vice pre  iter (SEAICE_LSR  1) mean= -1.18494610218030E-03
DEBUG_STATS_RL: Vice pre  iter (SEAICE_LSR  1) S.D.=  2.51572614879252E-03
DEBUG_STATS_RL: Uice pre  iter (SEAICE_LSR  2)  min= -1.66461661595648E-03
DEBUG_STATS_RL: Uice pre  iter (SEAICE_LSR  2)  max=  2.05817158221004E-01
DEBUG_STATS_RL: Uice pre  iter (SEAICE_LSR  2) mean=  2.18937658776677E-02
DEBUG_STATS_RL: Uice pre  iter (SEAICE_LSR  2) S.D.=  4.15140060700888E-02
DEBUG_STATS_RL: Vice pre  iter (SEAICE_LSR  2)  min= -1.15170217244308E-02
DEBUG_STATS_RL: Vice pre  iter (SEAICE_LSR  2)  max=  6.02623623339015E-02
DEBUG_STATS_RL: Vice pre  iter (SEAICE_LSR  2) mean= -5.88552864146919E-04
DEBUG_STATS_RL: Vice pre  iter (SEAICE_LSR  2) S.D.=  1.21471679479680E-02
DEBUG_STATS_RL:                EtaN (DYNAMICS)  min= -7.91800933896177E-02
DEBUG_STATS_RL:                EtaN (DYNAMICS)  max=  2.06357890624784E-01
DEBUG_STATS_RL:                EtaN (DYNAMICS) mean= -8.74156541733471E-04
DEBUG_STATS_RL:                EtaN (DYNAMICS) S.D.=  4.22657013639480E-02
DEBUG_STATS_RL:                Uvel (DYNAMICS)  min= -1.97613285723242E-02
DEBUG_STATS_RL:                Uvel (DYNAMICS)  max=  1.31897193240012E-02
DEBUG_STATS_RL:                Uvel (DYNAMICS) mean= -7.76915115649382E-04
DEBUG_STATS_RL:                Uvel (DYNAMICS) S.D.=  3.97168834923499E-03
DEBUG_STATS_RL:                Vvel (DYNAMICS)  min= -1.13773235335529E-02
DEBUG_STATS_RL:                Vvel (DYNAMICS)  max=  2.04284639774261E-02
DEBUG_STATS_RL:                Vvel (DYNAMICS) mean=  7.24190880687442E-04
DEBUG_STATS_RL:                Vvel (DYNAMICS) S.D.=  4.28907995073846E-03
DEBUG_STATS_RL:                Wvel (DYNAMICS)  min= -4.27131465138430E-05
DEBUG_STATS_RL:                Wvel (DYNAMICS)  max=  1.16530364658749E-04
DEBUG_STATS_RL:                Wvel (DYNAMICS) mean= -4.07763417598552E-07
DEBUG_STATS_RL:                Wvel (DYNAMICS) S.D.=  1.80149904412009E-05
DEBUG_STATS_RL:               Theta (DYNAMICS)  min= -1.41019615972461E+00
DEBUG_STATS_RL:               Theta (DYNAMICS)  max=  1.32440592110212E+01
DEBUG_STATS_RL:               Theta (DYNAMICS) mean=  2.49735783552472E+00
DEBUG_STATS_RL:               Theta (DYNAMICS) S.D.=  2.45807980529386E+00
DEBUG_STATS_RL:                Salt (DYNAMICS)  min=  2.76560994014067E+01
DEBUG_STATS_RL:                Salt (DYNAMICS)  max=  3.54507778736995E+01
DEBUG_STATS_RL:                Salt (DYNAMICS) mean=  3.39623217189232E+01
DEBUG_STATS_RL:                Salt (DYNAMICS) S.D.=  1.10108958710508E+00
DEBUG_STATS_RL:                  Gu (DYNAMICS)  min= -2.89112950168885E-02
DEBUG_STATS_RL:                  Gu (DYNAMICS)  max=  3.25741619058367E-02
DEBUG_STATS_RL:                  Gu (DYNAMICS) mean= -2.32520622241718E-03
DEBUG_STATS_RL:                  Gu (DYNAMICS) S.D.=  7.09155735785359E-03
DEBUG_STATS_RL:                  Gv (DYNAMICS)  min= -3.71241625510621E-02
DEBUG_STATS_RL:                  Gv (DYNAMICS)  max=  1.83230442031147E-02
DEBUG_STATS_RL:                  Gv (DYNAMICS) mean= -1.89259208721432E-03
DEBUG_STATS_RL:                  Gv (DYNAMICS) S.D.=  7.31046974976020E-03
DEBUG_STATS_RL:               GuNm1 (DYNAMICS)  min= -1.80289983389196E-07
DEBUG_STATS_RL:               GuNm1 (DYNAMICS)  max=  1.49251399870334E-07
DEBUG_STATS_RL:               GuNm1 (DYNAMICS) mean=  3.41794292088730E-09
DEBUG_STATS_RL:               GuNm1 (DYNAMICS) S.D.=  3.19693794884499E-08
DEBUG_STATS_RL:               GvNm1 (DYNAMICS)  min= -5.11118133734402E-08
DEBUG_STATS_RL:               GvNm1 (DYNAMICS)  max=  4.88281454922596E-08
DEBUG_STATS_RL:               GvNm1 (DYNAMICS) mean= -4.70245831256227E-11
DEBUG_STATS_RL:               GvNm1 (DYNAMICS) S.D.=  1.42003013108260E-08
DEBUG_STATS_RL:               GtNm1 (DYNAMICS)  min=  0.00000000000000E+00
DEBUG_STATS_RL:               GtNm1 (DYNAMICS)  max=  0.00000000000000E+00
DEBUG_STATS_RL:               GtNm1 (DYNAMICS) mean=  0.00000000000000E+00
DEBUG_STATS_RL:               GtNm1 (DYNAMICS) S.D.=  0.00000000000000E+00
DEBUG_STATS_RL:               GsNm1 (DYNAMICS)  min=  0.00000000000000E+00
DEBUG_STATS_RL:               GsNm1 (DYNAMICS)  max=  0.00000000000000E+00
DEBUG_STATS_RL:               GsNm1 (DYNAMICS) mean=  0.00000000000000E+00
DEBUG_STATS_RL:               GsNm1 (DYNAMICS) S.D.=  0.00000000000000E+00
DEBUG_STATS_RL:    cg2d_b (SOLVE_FOR_PRESSURE)  min= -7.40048897093643E+03
DEBUG_STATS_RL:    cg2d_b (SOLVE_FOR_PRESSURE)  max=  2.33428667016753E+03
DEBUG_STATS_RL:    cg2d_b (SOLVE_FOR_PRESSURE) mean=  5.15380331004659E-14
DEBUG_STATS_RL:    cg2d_b (SOLVE_FOR_PRESSURE) S.D.=  9.39768538610364E+02
 cg2d: Sum(rhs),rhsMax =   1.53002610581154E-15  1.19110424780756E+00
DEBUG_STATS_RL:    cg2d_x (SOLVE_FOR_PRESSURE)  min= -1.25977767814675E+00
DEBUG_STATS_RL:    cg2d_x (SOLVE_FOR_PRESSURE)  max=  2.83276936769467E+00
DEBUG_STATS_RL:    cg2d_x (SOLVE_FOR_PRESSURE) mean= -1.56118539430791E-02
DEBUG_STATS_RL:    cg2d_x (SOLVE_FOR_PRESSURE) S.D.=  6.63083405130026E-01
DEBUG_STATS_RL:          Uvel (THERMODYNAMICS)  min= -4.02432897586652E-02
DEBUG_STATS_RL:          Uvel (THERMODYNAMICS)  max=  3.23458159885820E-02
DEBUG_STATS_RL:          Uvel (THERMODYNAMICS) mean=  6.75465330206794E-04
DEBUG_STATS_RL:          Uvel (THERMODYNAMICS) S.D.=  7.33761384667267E-03
DEBUG_STATS_RL:          Vvel (THERMODYNAMICS)  min= -1.64862319058740E-02
DEBUG_STATS_RL:          Vvel (THERMODYNAMICS)  max=  4.21759382970963E-02
DEBUG_STATS_RL:          Vvel (THERMODYNAMICS) mean=  1.82858022907397E-03
DEBUG_STATS_RL:          Vvel (THERMODYNAMICS) S.D.=  8.08424055894123E-03
DEBUG_STATS_RL:          Wvel (THERMODYNAMICS)  min= -6.56490529174610E-05
DEBUG_STATS_RL:          Wvel (THERMODYNAMICS)  max=  1.68683217295647E-04
DEBUG_STATS_RL:          Wvel (THERMODYNAMICS) mean= -4.30739495112636E-07
DEBUG_STATS_RL:          Wvel (THERMODYNAMICS) S.D.=  1.89945067258204E-05
DEBUG_STATS_RL:         Theta (THERMODYNAMICS)  min= -1.83156742552816E+00
DEBUG_STATS_RL:         Theta (THERMODYNAMICS)  max=  1.32606612249659E+01
DEBUG_STATS_RL:         Theta (THERMODYNAMICS) mean=  2.43057765558689E+00
DEBUG_STATS_RL:         Theta (THERMODYNAMICS) S.D.=  2.55246643542934E+00
DEBUG_STATS_RL:          Salt (THERMODYNAMICS)  min=  2.76092906345221E+01
DEBUG_STATS_RL:          Salt (THERMODYNAMICS)  max=  3.54509236522671E+01
DEBUG_STATS_RL:          Salt (THERMODYNAMICS) mean=  3.39413044254433E+01
DEBUG_STATS_RL:          Salt (THERMODYNAMICS) S.D.=  1.14495872836586E+00
DEBUG_STATS_RL:         GtNm1 (THERMODYNAMICS)  min=  0.00000000000000E+00
DEBUG_STATS_RL:         GtNm1 (THERMODYNAMICS)  max=  0.00000000000000E+00
DEBUG_STATS_RL:         GtNm1 (THERMODYNAMICS) mean=  0.00000000000000E+00
DEBUG_STATS_RL:         GtNm1 (THERMODYNAMICS) S.D.=  0.00000000000000E+00
DEBUG_STATS_RL:         GsNm1 (THERMODYNAMICS)  min=  0.00000000000000E+00
DEBUG_STATS_RL:         GsNm1 (THERMODYNAMICS)  max=  0.00000000000000E+00
DEBUG_STATS_RL:         GsNm1 (THERMODYNAMICS) mean=  0.00000000000000E+00
DEBUG_STATS_RL:         GsNm1 (THERMODYNAMICS) S.D.=  0.00000000000000E+00
(PID.TID 0000.0001) ADWRITE: tid,vid, irec, length, prec(x2)=    41     1     2      672  8 64 fname=tapelev2_1_the_main_loop_etan
(PID.TID 0000.0001) ADWRITE:  tapeFileCounter =     1
(PID.TID 0000.0001) ADWRITE: tid,vid, irec, length, prec(x2)=    41     2     2      672  8 64 fname=tapelev2_2_the_main_loop_taux0
(PID.TID 0000.0001) ADWRITE:  tapeFileCounter =     2
(PID.TID 0000.0001) ADWRITE: tid,vid, irec, length, prec(x2)=    41     3     2      672  8 64 fname=tapelev2_3_the_main_loop_taux1
(PID.TID 0000.0001) ADWRITE:  tapeFileCounter =     3
(PID.TID 0000.0001) ADWRITE: tid,vid, irec, length, prec(x2)=    41     4     2      672  8 64 fname=tapelev2_4_the_main_loop_tauy0
(PID.TID 0000.0001) ADWRITE:  tapeFileCounter =     4
(PID.TID 0000.0001) ADWRITE: tid,vid, irec, length, prec(x2)=    41     5     2      672  8 64 fname=tapelev2_5_the_main_loop_tauy1
(PID.TID 0000.0001) ADWRITE:  tapeFileCounter =     5
(PID.TID 0000.0001) ADWRITE: tid,vid, irec, length, prec(x2)=    41     6     2      672  8 64 fname=tapelev2_6_the_main_loop_qnet0
(PID.TID 0000.0001) ADWRITE:  tapeFileCounter =     6
(PID.TID 0000.0001) ADWRITE: tid,vid, irec, length, prec(x2)=    41     7     2      672  8 64 fname=tapelev2_7_the_main_loop_qnet1
(PID.TID 0000.0001) ADWRITE:  tapeFileCounter =     7
(PID.TID 0000.0001) ADWRITE: tid,vid, irec, length, prec(x2)=    41     8     2      672  8 64 fname=tapelev2_8_the_main_loop_empmr0
(PID.TID 0000.0001) ADWRITE:  tapeFileCounter =     8
(PID.TID 0000.0001) ADWRITE: tid,vid, irec, length, prec(x2)=    41     9     2      672  8 64 fname=tapelev2_9_the_main_loop_empmr1
(PID.TID 0000.0001) ADWRITE:  tapeFileCounter =     9
(PID.TID 0000.0001) ADWRITE: tid,vid, irec, length, prec(x2)=    41    10     2      672  8 64 fname=tapelev2_10_the_main_loop_sst0
(PID.TID 0000.0001) ADWRITE:  tapeFileCounter =    10
(PID.TID 0000.0001) ADWRITE: tid,vid, irec, length, prec(x2)=    41    11     2      672  8 64 fname=tapelev2_11_the_main_loop_sst1
(PID.TID 0000.0001) ADWRITE:  tapeFileCounter =    11
(PID.TID 0000.0001) ADWRITE: tid,vid, irec, length, prec(x2)=    41    12     2      672  8 64 fname=tapelev2_12_the_main_loop_sss0
(PID.TID 0000.0001) ADWRITE:  tapeFileCounter =    12
(PID.TID 0000.0001) ADWRITE: tid,vid, irec, length, prec(x2)=    41    13     2      672  8 64 fname=tapelev2_13_the_main_loop_sss1
(PID.TID 0000.0001) ADWRITE:  tapeFileCounter =    13
(PID.TID 0000.0001) ADWRITE: tid,vid, irec, length, prec(x2)=    41    14     2      672  8 64 fname=tapelev2_14_the_main_loop_saltflux0
(PID.TID 0000.0001) ADWRITE:  tapeFileCounter =    14
(PID.TID 0000.0001) ADWRITE: tid,vid, irec, length, prec(x2)=    41    15     2      672  8 64 fname=tapelev2_15_the_main_loop_saltflux1
(PID.TID 0000.0001) ADWRITE:  tapeFileCounter =    15
(PID.TID 0000.0001) ADWRITE: tid,vid, irec, length, prec(x2)=    41    16     2      672  8 64 fname=tapelev2_16_the_main_loop_qsw0
(PID.TID 0000.0001) ADWRITE:  tapeFileCounter =    16
(PID.TID 0000.0001) ADWRITE: tid,vid, irec, length, prec(x2)=    41    17     2      672  8 64 fname=tapelev2_17_the_main_loop_qsw1
(PID.TID 0000.0001) ADWRITE:  tapeFileCounter =    17
(PID.TID 0000.0001) ADWRITE: tid,vid, irec, length, prec(x2)=    41    18     2      672  8 64 fname=tapelev2_18_the_main_loop_pload0
(PID.TID 0000.0001) ADWRITE:  tapeFileCounter =    18
(PID.TID 0000.0001) ADWRITE: tid,vid, irec, length, prec(x2)=    41    19     2      672  8 64 fname=tapelev2_19_the_main_loop_pload1
(PID.TID 0000.0001) ADWRITE:  tapeFileCounter =    19
(PID.TID 0000.0001) ADWRITE: tid,vid, irec, length, prec(x2)=    41    20     2      672  8 64 fname=tapelev2_20_the_main_loop_etah
(PID.TID 0000.0001) ADWRITE:  tapeFileCounter =    20
(PID.TID 0000.0001) ADWRITE: tid,vid, irec, length, prec(x2)=    41    21     2      672  8 64 fname=tapelev2_21_the_main_loop_detahdt
(PID.TID 0000.0001) ADWRITE:  tapeFileCounter =    21
(PID.TID 0000.0001) ADWRITE: tid,vid, irec, length, prec(x2)=    41    22     2      672  8 64 fname=tapelev2_22_the_main_loop_pmepr
(PID.TID 0000.0001) ADWRITE:  tapeFileCounter =    22
(PID.TID 0000.0001) ADWRITE: tid,vid, irec, length, prec(x2)=    41    23     2    15456  8 64 fname=tapelev2_23_the_main_loop_gtnm1
(PID.TID 0000.0001) ADWRITE:  tapeFileCounter =    23
(PID.TID 0000.0001) ADWRITE:  tapeFileCounter =    24
(PID.TID 0000.0001) ADWRITE:  tapeFileCounter =    25
(PID.TID 0000.0001) ADWRITE:  tapeFileCounter =    26
(PID.TID 0000.0001) ADWRITE:  tapeFileCounter =    27
(PID.TID 0000.0001) ADWRITE:  tapeFileCounter =    28
(PID.TID 0000.0001) ADWRITE:  tapeFileCounter =    29
(PID.TID 0000.0001) ADWRITE:  tapeFileCounter =    30
(PID.TID 0000.0001) ADWRITE:  tapeFileCounter =    31
(PID.TID 0000.0001) ADWRITE:  tapeFileCounter =    32
(PID.TID 0000.0001) ADWRITE:  tapeFileCounter =    33
(PID.TID 0000.0001) ADWRITE:  tapeFileCounter =    34
(PID.TID 0000.0001) ADWRITE:  tapeFileCounter =    35
(PID.TID 0000.0001) ADWRITE:  tapeFileCounter =    36
(PID.TID 0000.0001) ADWRITE:  tapeFileCounter =    37
(PID.TID 0000.0001) ADWRITE:  tapeFileCounter =    38
(PID.TID 0000.0001) ADWRITE:  tapeFileCounter =    39
(PID.TID 0000.0001) ADWRITE:  tapeFileCounter =    40
(PID.TID 0000.0001) ADWRITE:  tapeFileCounter =    41
(PID.TID 0000.0001) ADWRITE:  tapeFileCounter =    42
(PID.TID 0000.0001) ADWRITE:  tapeFileCounter =    43
(PID.TID 0000.0001) ADWRITE:  tapeFileCounter =    44
(PID.TID 0000.0001) ADWRITE:  tapeFileCounter =    45
(PID.TID 0000.0001) ADWRITE: tid,vid, irec, length, prec(x2)=    41    24     2    15456  8 64 fname=tapelev2_24_the_main_loop_gsnm1
(PID.TID 0000.0001) ADWRITE:  tapeFileCounter =    46
(PID.TID 0000.0001) ADWRITE:  tapeFileCounter =    47
(PID.TID 0000.0001) ADWRITE:  tapeFileCounter =    48
(PID.TID 0000.0001) ADWRITE:  tapeFileCounter =    49
(PID.TID 0000.0001) ADWRITE:  tapeFileCounter =    50
(PID.TID 0000.0001) ADWRITE:  tapeFileCounter =    51
(PID.TID 0000.0001) ADWRITE:  tapeFileCounter =    52
(PID.TID 0000.0001) ADWRITE:  tapeFileCounter =    53
(PID.TID 0000.0001) ADWRITE:  tapeFileCounter =    54
(PID.TID 0000.0001) ADWRITE:  tapeFileCounter =    55
(PID.TID 0000.0001) ADWRITE:  tapeFileCounter =    56
(PID.TID 0000.0001) ADWRITE:  tapeFileCounter =    57
(PID.TID 0000.0001) ADWRITE:  tapeFileCounter =    58
(PID.TID 0000.0001) ADWRITE:  tapeFileCounter =    59
(PID.TID 0000.0001) ADWRITE:  tapeFileCounter =    60
(PID.TID 0000.0001) ADWRITE:  tapeFileCounter =    61
(PID.TID 0000.0001) ADWRITE:  tapeFileCounter =    62
(PID.TID 0000.0001) ADWRITE:  tapeFileCounter =    63
(PID.TID 0000.0001) ADWRITE:  tapeFileCounter =    64
(PID.TID 0000.0001) ADWRITE:  tapeFileCounter =    65
(PID.TID 0000.0001) ADWRITE:  tapeFileCounter =    66
(PID.TID 0000.0001) ADWRITE:  tapeFileCounter =    67
(PID.TID 0000.0001) ADWRITE:  tapeFileCounter =    68
(PID.TID 0000.0001) ADWRITE: tid,vid, irec, length, prec(x2)=    41    25     2    15456  8 64 fname=tapelev2_25_the_main_loop_gunm1
(PID.TID 0000.0001) ADWRITE:  tapeFileCounter =    69
(PID.TID 0000.0001) ADWRITE:  tapeFileCounter =    70
(PID.TID 0000.0001) ADWRITE:  tapeFileCounter =    71
(PID.TID 0000.0001) ADWRITE:  tapeFileCounter =    72
(PID.TID 0000.0001) ADWRITE:  tapeFileCounter =    73
(PID.TID 0000.0001) ADWRITE:  tapeFileCounter =    74
(PID.TID 0000.0001) ADWRITE:  tapeFileCounter =    75
(PID.TID 0000.0001) ADWRITE:  tapeFileCounter =    76
(PID.TID 0000.0001) ADWRITE:  tapeFileCounter =    77
(PID.TID 0000.0001) ADWRITE:  tapeFileCounter =    78
(PID.TID 0000.0001) ADWRITE:  tapeFileCounter =    79
(PID.TID 0000.0001) ADWRITE:  tapeFileCounter =    80
(PID.TID 0000.0001) ADWRITE:  tapeFileCounter =    81
(PID.TID 0000.0001) ADWRITE:  tapeFileCounter =    82
(PID.TID 0000.0001) ADWRITE:  tapeFileCounter =    83
(PID.TID 0000.0001) ADWRITE:  tapeFileCounter =    84
(PID.TID 0000.0001) ADWRITE:  tapeFileCounter =    85
(PID.TID 0000.0001) ADWRITE:  tapeFileCounter =    86
(PID.TID 0000.0001) ADWRITE:  tapeFileCounter =    87
(PID.TID 0000.0001) ADWRITE:  tapeFileCounter =    88
(PID.TID 0000.0001) ADWRITE:  tapeFileCounter =    89
(PID.TID 0000.0001) ADWRITE:  tapeFileCounter =    90
(PID.TID 0000.0001) ADWRITE:  tapeFileCounter =    91
(PID.TID 0000.0001) ADWRITE: tid,vid, irec, length, prec(x2)=    41    26     2    15456  8 64 fname=tapelev2_26_the_main_loop_gvnm1
(PID.TID 0000.0001) ADWRITE:  tapeFileCounter =    92
(PID.TID 0000.0001) ADWRITE:  tapeFileCounter =    93
(PID.TID 0000.0001) ADWRITE:  tapeFileCounter =    94
(PID.TID 0000.0001) ADWRITE:  tapeFileCounter =    95
(PID.TID 0000.0001) ADWRITE:  tapeFileCounter =    96
(PID.TID 0000.0001) ADWRITE:  tapeFileCounter =    97
(PID.TID 0000.0001) ADWRITE:  tapeFileCounter =    98
(PID.TID 0000.0001) ADWRITE:  tapeFileCounter =    99
(PID.TID 0000.0001) ADWRITE:  tapeFileCounter =   100
(PID.TID 0000.0001) ADWRITE:  tapeFileCounter =   101
(PID.TID 0000.0001) ADWRITE:  tapeFileCounter =   102
(PID.TID 0000.0001) ADWRITE:  tapeFileCounter =   103
(PID.TID 0000.0001) ADWRITE:  tapeFileCounter =   104
(PID.TID 0000.0001) ADWRITE:  tapeFileCounter =   105
(PID.TID 0000.0001) ADWRITE:  tapeFileCounter =   106
(PID.TID 0000.0001) ADWRITE:  tapeFileCounter =   107
(PID.TID 0000.0001) ADWRITE:  tapeFileCounter =   108
(PID.TID 0000.0001) ADWRITE:  tapeFileCounter =   109
(PID.TID 0000.0001) ADWRITE:  tapeFileCounter =   110
(PID.TID 0000.0001) ADWRITE:  tapeFileCounter =   111
(PID.TID 0000.0001) ADWRITE:  tapeFileCounter =   112
(PID.TID 0000.0001) ADWRITE:  tapeFileCounter =   113
(PID.TID 0000.0001) ADWRITE:  tapeFileCounter =   114
(PID.TID 0000.0001) ADWRITE: tid,vid, irec, length, prec(x2)=    41    27     2    15456  8 64 fname=tapelev2_27_the_main_loop_theta
(PID.TID 0000.0001) ADWRITE:  tapeFileCounter =   115
(PID.TID 0000.0001) ADWRITE:  tapeFileCounter =   116
(PID.TID 0000.0001) ADWRITE:  tapeFileCounter =   117
(PID.TID 0000.0001) ADWRITE:  tapeFileCounter =   118
(PID.TID 0000.0001) ADWRITE:  tapeFileCounter =   119
(PID.TID 0000.0001) ADWRITE:  tapeFileCounter =   120
(PID.TID 0000.0001) ADWRITE:  tapeFileCounter =   121
(PID.TID 0000.0001) ADWRITE:  tapeFileCounter =   122
(PID.TID 0000.0001) ADWRITE:  tapeFileCounter =   123
(PID.TID 0000.0001) ADWRITE:  tapeFileCounter =   124
(PID.TID 0000.0001) ADWRITE:  tapeFileCounter =   125
(PID.TID 0000.0001) ADWRITE:  tapeFileCounter =   126
(PID.TID 0000.0001) ADWRITE:  tapeFileCounter =   127
(PID.TID 0000.0001) ADWRITE:  tapeFileCounter =   128
(PID.TID 0000.0001) ADWRITE:  tapeFileCounter =   129
(PID.TID 0000.0001) ADWRITE:  tapeFileCounter =   130
(PID.TID 0000.0001) ADWRITE:  tapeFileCounter =   131
(PID.TID 0000.0001) ADWRITE:  tapeFileCounter =   132
(PID.TID 0000.0001) ADWRITE:  tapeFileCounter =   133
(PID.TID 0000.0001) ADWRITE:  tapeFileCounter =   134
(PID.TID 0000.0001) ADWRITE:  tapeFileCounter =   135
(PID.TID 0000.0001) ADWRITE:  tapeFileCounter =   136
(PID.TID 0000.0001) ADWRITE:  tapeFileCounter =   137
(PID.TID 0000.0001) ADWRITE: tid,vid, irec, length, prec(x2)=    41    28     2    15456  8 64 fname=tapelev2_28_the_main_loop_salt
(PID.TID 0000.0001) ADWRITE:  tapeFileCounter =   138
(PID.TID 0000.0001) ADWRITE:  tapeFileCounter =   139
(PID.TID 0000.0001) ADWRITE:  tapeFileCounter =   140
(PID.TID 0000.0001) ADWRITE:  tapeFileCounter =   141
(PID.TID 0000.0001) ADWRITE:  tapeFileCounter =   142
(PID.TID 0000.0001) ADWRITE:  tapeFileCounter =   143
(PID.TID 0000.0001) ADWRITE:  tapeFileCounter =   144
(PID.TID 0000.0001) ADWRITE:  tapeFileCounter =   145
(PID.TID 0000.0001) ADWRITE:  tapeFileCounter =   146
(PID.TID 0000.0001) ADWRITE:  tapeFileCounter =   147
(PID.TID 0000.0001) ADWRITE:  tapeFileCounter =   148
(PID.TID 0000.0001) ADWRITE:  tapeFileCounter =   149
(PID.TID 0000.0001) ADWRITE:  tapeFileCounter =   150
(PID.TID 0000.0001) ADWRITE:  tapeFileCounter =   151
(PID.TID 0000.0001) ADWRITE:  tapeFileCounter =   152
(PID.TID 0000.0001) ADWRITE:  tapeFileCounter =   153
(PID.TID 0000.0001) ADWRITE:  tapeFileCounter =   154
(PID.TID 0000.0001) ADWRITE:  tapeFileCounter =   155
(PID.TID 0000.0001) ADWRITE:  tapeFileCounter =   156
(PID.TID 0000.0001) ADWRITE:  tapeFileCounter =   157
(PID.TID 0000.0001) ADWRITE:  tapeFileCounter =   158
(PID.TID 0000.0001) ADWRITE:  tapeFileCounter =   159
(PID.TID 0000.0001) ADWRITE:  tapeFileCounter =   160
(PID.TID 0000.0001) ADWRITE: tid,vid, irec, length, prec(x2)=    41    29     2    15456  8 64 fname=tapelev2_29_the_main_loop_uvel
(PID.TID 0000.0001) ADWRITE:  tapeFileCounter =   161
(PID.TID 0000.0001) ADWRITE:  tapeFileCounter =   162
(PID.TID 0000.0001) ADWRITE:  tapeFileCounter =   163
(PID.TID 0000.0001) ADWRITE:  tapeFileCounter =   164
(PID.TID 0000.0001) ADWRITE:  tapeFileCounter =   165
(PID.TID 0000.0001) ADWRITE:  tapeFileCounter =   166
(PID.TID 0000.0001) ADWRITE:  tapeFileCounter =   167
(PID.TID 0000.0001) ADWRITE:  tapeFileCounter =   168
(PID.TID 0000.0001) ADWRITE:  tapeFileCounter =   169
(PID.TID 0000.0001) ADWRITE:  tapeFileCounter =   170
(PID.TID 0000.0001) ADWRITE:  tapeFileCounter =   171
(PID.TID 0000.0001) ADWRITE:  tapeFileCounter =   172
(PID.TID 0000.0001) ADWRITE:  tapeFileCounter =   173
(PID.TID 0000.0001) ADWRITE:  tapeFileCounter =   174
(PID.TID 0000.0001) ADWRITE:  tapeFileCounter =   175
(PID.TID 0000.0001) ADWRITE:  tapeFileCounter =   176
(PID.TID 0000.0001) ADWRITE:  tapeFileCounter =   177
(PID.TID 0000.0001) ADWRITE:  tapeFileCounter =   178
(PID.TID 0000.0001) ADWRITE:  tapeFileCounter =   179
(PID.TID 0000.0001) ADWRITE:  tapeFileCounter =   180
(PID.TID 0000.0001) ADWRITE:  tapeFileCounter =   181
(PID.TID 0000.0001) ADWRITE:  tapeFileCounter =   182
(PID.TID 0000.0001) ADWRITE:  tapeFileCounter =   183
(PID.TID 0000.0001) ADWRITE: tid,vid, irec, length, prec(x2)=    41    30     2    15456  8 64 fname=tapelev2_30_the_main_loop_vvel
(PID.TID 0000.0001) ADWRITE:  tapeFileCounter =   184
(PID.TID 0000.0001) ADWRITE:  tapeFileCounter =   185
(PID.TID 0000.0001) ADWRITE:  tapeFileCounter =   186
(PID.TID 0000.0001) ADWRITE:  tapeFileCounter =   187
(PID.TID 0000.0001) ADWRITE:  tapeFileCounter =   188
(PID.TID 0000.0001) ADWRITE:  tapeFileCounter =   189
(PID.TID 0000.0001) ADWRITE:  tapeFileCounter =   190
(PID.TID 0000.0001) ADWRITE:  tapeFileCounter =   191
(PID.TID 0000.0001) ADWRITE:  tapeFileCounter =   192
(PID.TID 0000.0001) ADWRITE:  tapeFileCounter =   193
(PID.TID 0000.0001) ADWRITE:  tapeFileCounter =   194
(PID.TID 0000.0001) ADWRITE:  tapeFileCounter =   195
(PID.TID 0000.0001) ADWRITE:  tapeFileCounter =   196
(PID.TID 0000.0001) ADWRITE:  tapeFileCounter =   197
(PID.TID 0000.0001) ADWRITE:  tapeFileCounter =   198
(PID.TID 0000.0001) ADWRITE:  tapeFileCounter =   199
(PID.TID 0000.0001) ADWRITE:  tapeFileCounter =   200
(PID.TID 0000.0001) ADWRITE:  tapeFileCounter =   201
(PID.TID 0000.0001) ADWRITE:  tapeFileCounter =   202
(PID.TID 0000.0001) ADWRITE:  tapeFileCounter =   203
(PID.TID 0000.0001) ADWRITE:  tapeFileCounter =   204
(PID.TID 0000.0001) ADWRITE:  tapeFileCounter =   205
(PID.TID 0000.0001) ADWRITE:  tapeFileCounter =   206
(PID.TID 0000.0001) ADWRITE: tid,vid, irec, length, prec(x2)=    41    31     2    15456  8 64 fname=tapelev2_31_the_main_loop_wvel
(PID.TID 0000.0001) ADWRITE:  tapeFileCounter =   207
(PID.TID 0000.0001) ADWRITE:  tapeFileCounter =   208
(PID.TID 0000.0001) ADWRITE:  tapeFileCounter =   209
(PID.TID 0000.0001) ADWRITE:  tapeFileCounter =   210
(PID.TID 0000.0001) ADWRITE:  tapeFileCounter =   211
(PID.TID 0000.0001) ADWRITE:  tapeFileCounter =   212
(PID.TID 0000.0001) ADWRITE:  tapeFileCounter =   213
(PID.TID 0000.0001) ADWRITE:  tapeFileCounter =   214
(PID.TID 0000.0001) ADWRITE:  tapeFileCounter =   215
(PID.TID 0000.0001) ADWRITE:  tapeFileCounter =   216
(PID.TID 0000.0001) ADWRITE:  tapeFileCounter =   217
(PID.TID 0000.0001) ADWRITE:  tapeFileCounter =   218
(PID.TID 0000.0001) ADWRITE:  tapeFileCounter =   219
(PID.TID 0000.0001) ADWRITE:  tapeFileCounter =   220
(PID.TID 0000.0001) ADWRITE:  tapeFileCounter =   221
(PID.TID 0000.0001) ADWRITE:  tapeFileCounter =   222
(PID.TID 0000.0001) ADWRITE:  tapeFileCounter =   223
(PID.TID 0000.0001) ADWRITE:  tapeFileCounter =   224
(PID.TID 0000.0001) ADWRITE:  tapeFileCounter =   225
(PID.TID 0000.0001) ADWRITE:  tapeFileCounter =   226
(PID.TID 0000.0001) ADWRITE:  tapeFileCounter =   227
(PID.TID 0000.0001) ADWRITE:  tapeFileCounter =   228
(PID.TID 0000.0001) ADWRITE:  tapeFileCounter =   229
(PID.TID 0000.0001) ADWRITE: tid,vid, irec, length, prec(x2)=    41    32     2    15456  8 64 fname=tapelev2_32_the_main_loop_totphihyd
(PID.TID 0000.0001) ADWRITE:  tapeFileCounter =   230
(PID.TID 0000.0001) ADWRITE:  tapeFileCounter =   231
(PID.TID 0000.0001) ADWRITE:  tapeFileCounter =   232
(PID.TID 0000.0001) ADWRITE:  tapeFileCounter =   233
(PID.TID 0000.0001) ADWRITE:  tapeFileCounter =   234
(PID.TID 0000.0001) ADWRITE:  tapeFileCounter =   235
(PID.TID 0000.0001) ADWRITE:  tapeFileCounter =   236
(PID.TID 0000.0001) ADWRITE:  tapeFileCounter =   237
(PID.TID 0000.0001) ADWRITE:  tapeFileCounter =   238
(PID.TID 0000.0001) ADWRITE:  tapeFileCounter =   239
(PID.TID 0000.0001) ADWRITE:  tapeFileCounter =   240
(PID.TID 0000.0001) ADWRITE:  tapeFileCounter =   241
(PID.TID 0000.0001) ADWRITE:  tapeFileCounter =   242
(PID.TID 0000.0001) ADWRITE:  tapeFileCounter =   243
(PID.TID 0000.0001) ADWRITE:  tapeFileCounter =   244
(PID.TID 0000.0001) ADWRITE:  tapeFileCounter =   245
(PID.TID 0000.0001) ADWRITE:  tapeFileCounter =   246
(PID.TID 0000.0001) ADWRITE:  tapeFileCounter =   247
(PID.TID 0000.0001) ADWRITE:  tapeFileCounter =   248
(PID.TID 0000.0001) ADWRITE:  tapeFileCounter =   249
(PID.TID 0000.0001) ADWRITE:  tapeFileCounter =   250
(PID.TID 0000.0001) ADWRITE:  tapeFileCounter =   251
(PID.TID 0000.0001) ADWRITE:  tapeFileCounter =   252
(PID.TID 0000.0001) ADWRITE: tid,vid, irec, length, prec(x2)=    41    35     2    15456  8 64 fname=tapelev2_35_the_main_loop_uveld
(PID.TID 0000.0001) ADWRITE:  tapeFileCounter =   253
(PID.TID 0000.0001) ADWRITE:  tapeFileCounter =   254
(PID.TID 0000.0001) ADWRITE:  tapeFileCounter =   255
(PID.TID 0000.0001) ADWRITE:  tapeFileCounter =   256
(PID.TID 0000.0001) ADWRITE:  tapeFileCounter =   257
(PID.TID 0000.0001) ADWRITE:  tapeFileCounter =   258
(PID.TID 0000.0001) ADWRITE:  tapeFileCounter =   259
(PID.TID 0000.0001) ADWRITE:  tapeFileCounter =   260
(PID.TID 0000.0001) ADWRITE:  tapeFileCounter =   261
(PID.TID 0000.0001) ADWRITE:  tapeFileCounter =   262
(PID.TID 0000.0001) ADWRITE:  tapeFileCounter =   263
(PID.TID 0000.0001) ADWRITE:  tapeFileCounter =   264
(PID.TID 0000.0001) ADWRITE:  tapeFileCounter =   265
(PID.TID 0000.0001) ADWRITE:  tapeFileCounter =   266
(PID.TID 0000.0001) ADWRITE:  tapeFileCounter =   267
(PID.TID 0000.0001) ADWRITE:  tapeFileCounter =   268
(PID.TID 0000.0001) ADWRITE:  tapeFileCounter =   269
(PID.TID 0000.0001) ADWRITE:  tapeFileCounter =   270
(PID.TID 0000.0001) ADWRITE:  tapeFileCounter =   271
(PID.TID 0000.0001) ADWRITE:  tapeFileCounter =   272
(PID.TID 0000.0001) ADWRITE:  tapeFileCounter =   273
(PID.TID 0000.0001) ADWRITE:  tapeFileCounter =   274
(PID.TID 0000.0001) ADWRITE:  tapeFileCounter =   275
(PID.TID 0000.0001) ADWRITE: tid,vid, irec, length, prec(x2)=    41    36     2    15456  8 64 fname=tapelev2_36_the_main_loop_vveld
(PID.TID 0000.0001) ADWRITE:  tapeFileCounter =   276
(PID.TID 0000.0001) ADWRITE:  tapeFileCounter =   277
(PID.TID 0000.0001) ADWRITE:  tapeFileCounter =   278
(PID.TID 0000.0001) ADWRITE:  tapeFileCounter =   279
(PID.TID 0000.0001) ADWRITE:  tapeFileCounter =   280
(PID.TID 0000.0001) ADWRITE:  tapeFileCounter =   281
(PID.TID 0000.0001) ADWRITE:  tapeFileCounter =   282
(PID.TID 0000.0001) ADWRITE:  tapeFileCounter =   283
(PID.TID 0000.0001) ADWRITE:  tapeFileCounter =   284
(PID.TID 0000.0001) ADWRITE:  tapeFileCounter =   285
(PID.TID 0000.0001) ADWRITE:  tapeFileCounter =   286
(PID.TID 0000.0001) ADWRITE:  tapeFileCounter =   287
(PID.TID 0000.0001) ADWRITE:  tapeFileCounter =   288
(PID.TID 0000.0001) ADWRITE:  tapeFileCounter =   289
(PID.TID 0000.0001) ADWRITE:  tapeFileCounter =   290
(PID.TID 0000.0001) ADWRITE:  tapeFileCounter =   291
(PID.TID 0000.0001) ADWRITE:  tapeFileCounter =   292
(PID.TID 0000.0001) ADWRITE:  tapeFileCounter =   293
(PID.TID 0000.0001) ADWRITE:  tapeFileCounter =   294
(PID.TID 0000.0001) ADWRITE:  tapeFileCounter =   295
(PID.TID 0000.0001) ADWRITE:  tapeFileCounter =   296
(PID.TID 0000.0001) ADWRITE:  tapeFileCounter =   297
(PID.TID 0000.0001) ADWRITE:  tapeFileCounter =   298
(PID.TID 0000.0001) ADWRITE: tid,vid, irec, length, prec(x2)=    41    37     2      672  8 64 fname=tapelev2_37_the_main_loop_etanm1
(PID.TID 0000.0001) ADWRITE:  tapeFileCounter =   299
(PID.TID 0000.0001) ADWRITE: tid,vid, irec, length, prec(x2)=    41    38     2    15456  8 64 fname=tapelev2_38_the_main_loop_unm1
(PID.TID 0000.0001) ADWRITE:  tapeFileCounter =   300
(PID.TID 0000.0001) ADWRITE:  tapeFileCounter =   301
(PID.TID 0000.0001) ADWRITE:  tapeFileCounter =   302
(PID.TID 0000.0001) ADWRITE:  tapeFileCounter =   303
(PID.TID 0000.0001) ADWRITE:  tapeFileCounter =   304
(PID.TID 0000.0001) ADWRITE:  tapeFileCounter =   305
(PID.TID 0000.0001) ADWRITE:  tapeFileCounter =   306
(PID.TID 0000.0001) ADWRITE:  tapeFileCounter =   307
(PID.TID 0000.0001) ADWRITE:  tapeFileCounter =   308
(PID.TID 0000.0001) ADWRITE:  tapeFileCounter =   309
(PID.TID 0000.0001) ADWRITE:  tapeFileCounter =   310
(PID.TID 0000.0001) ADWRITE:  tapeFileCounter =   311
(PID.TID 0000.0001) ADWRITE:  tapeFileCounter =   312
(PID.TID 0000.0001) ADWRITE:  tapeFileCounter =   313
(PID.TID 0000.0001) ADWRITE:  tapeFileCounter =   314
(PID.TID 0000.0001) ADWRITE:  tapeFileCounter =   315
(PID.TID 0000.0001) ADWRITE:  tapeFileCounter =   316
(PID.TID 0000.0001) ADWRITE:  tapeFileCounter =   317
(PID.TID 0000.0001) ADWRITE:  tapeFileCounter =   318
(PID.TID 0000.0001) ADWRITE:  tapeFileCounter =   319
(PID.TID 0000.0001) ADWRITE:  tapeFileCounter =   320
(PID.TID 0000.0001) ADWRITE:  tapeFileCounter =   321
(PID.TID 0000.0001) ADWRITE:  tapeFileCounter =   322
(PID.TID 0000.0001) ADWRITE: tid,vid, irec, length, prec(x2)=    41    39     2    15456  8 64 fname=tapelev2_39_the_main_loop_vnm1
(PID.TID 0000.0001) ADWRITE:  tapeFileCounter =   323
(PID.TID 0000.0001) ADWRITE:  tapeFileCounter =   324
(PID.TID 0000.0001) ADWRITE:  tapeFileCounter =   325
(PID.TID 0000.0001) ADWRITE:  tapeFileCounter =   326
(PID.TID 0000.0001) ADWRITE:  tapeFileCounter =   327
(PID.TID 0000.0001) ADWRITE:  tapeFileCounter =   328
(PID.TID 0000.0001) ADWRITE:  tapeFileCounter =   329
(PID.TID 0000.0001) ADWRITE:  tapeFileCounter =   330
(PID.TID 0000.0001) ADWRITE:  tapeFileCounter =   331
(PID.TID 0000.0001) ADWRITE:  tapeFileCounter =   332
(PID.TID 0000.0001) ADWRITE:  tapeFileCounter =   333
(PID.TID 0000.0001) ADWRITE:  tapeFileCounter =   334
(PID.TID 0000.0001) ADWRITE:  tapeFileCounter =   335
(PID.TID 0000.0001) ADWRITE:  tapeFileCounter =   336
(PID.TID 0000.0001) ADWRITE:  tapeFileCounter =   337
(PID.TID 0000.0001) ADWRITE:  tapeFileCounter =   338
(PID.TID 0000.0001) ADWRITE:  tapeFileCounter =   339
(PID.TID 0000.0001) ADWRITE:  tapeFileCounter =   340
(PID.TID 0000.0001) ADWRITE:  tapeFileCounter =   341
(PID.TID 0000.0001) ADWRITE:  tapeFileCounter =   342
(PID.TID 0000.0001) ADWRITE:  tapeFileCounter =   343
(PID.TID 0000.0001) ADWRITE:  tapeFileCounter =   344
(PID.TID 0000.0001) ADWRITE:  tapeFileCounter =   345
(PID.TID 0000.0001) ADWRITE: tid,vid, irec, length, prec(x2)=    41    40     2      672  8 64 fname=tapelev2_40_the_main_loop_areamask0
(PID.TID 0000.0001) ADWRITE:  tapeFileCounter =   346
(PID.TID 0000.0001) ADWRITE: tid,vid, irec, length, prec(x2)=    41    41     2      672  8 64 fname=tapelev2_41_the_main_loop_areamask1
(PID.TID 0000.0001) ADWRITE:  tapeFileCounter =   347
(PID.TID 0000.0001) ADWRITE: tid,vid, irec, length, prec(x2)=    41    42     2      672  8 64 fname=tapelev2_42_the_main_loop_hflux0
(PID.TID 0000.0001) ADWRITE:  tapeFileCounter =   348
(PID.TID 0000.0001) ADWRITE: tid,vid, irec, length, prec(x2)=    41    43     2      672  8 64 fname=tapelev2_43_the_main_loop_hflux1
(PID.TID 0000.0001) ADWRITE:  tapeFileCounter =   349
(PID.TID 0000.0001) ADWRITE: tid,vid, irec, length, prec(x2)=    41    44     2      672  8 64 fname=tapelev2_44_the_main_loop_sflux0
(PID.TID 0000.0001) ADWRITE:  tapeFileCounter =   350
(PID.TID 0000.0001) ADWRITE: tid,vid, irec, length, prec(x2)=    41    45     2      672  8 64 fname=tapelev2_45_the_main_loop_sflux1
(PID.TID 0000.0001) ADWRITE:  tapeFileCounter =   351
(PID.TID 0000.0001) ADWRITE: tid,vid, irec, length, prec(x2)=    41    46     2      672  8 64 fname=tapelev2_46_the_main_loop_ustress0
(PID.TID 0000.0001) ADWRITE:  tapeFileCounter =   352
(PID.TID 0000.0001) ADWRITE: tid,vid, irec, length, prec(x2)=    41    47     2      672  8 64 fname=tapelev2_47_the_main_loop_ustress1
(PID.TID 0000.0001) ADWRITE:  tapeFileCounter =   353
(PID.TID 0000.0001) ADWRITE: tid,vid, irec, length, prec(x2)=    41    48     2      672  8 64 fname=tapelev2_48_the_main_loop_vstress0
(PID.TID 0000.0001) ADWRITE:  tapeFileCounter =   354
(PID.TID 0000.0001) ADWRITE: tid,vid, irec, length, prec(x2)=    41    49     2      672  8 64 fname=tapelev2_49_the_main_loop_vstress1
(PID.TID 0000.0001) ADWRITE:  tapeFileCounter =   355
(PID.TID 0000.0001) ADWRITE: tid,vid, irec, length, prec(x2)=    41    50     2      672  8 64 fname=tapelev2_50_the_main_loop_wspeed0
(PID.TID 0000.0001) ADWRITE:  tapeFileCounter =   356
(PID.TID 0000.0001) ADWRITE: tid,vid, irec, length, prec(x2)=    41    51     2      672  8 64 fname=tapelev2_51_the_main_loop_wspeed1
(PID.TID 0000.0001) ADWRITE:  tapeFileCounter =   357
(PID.TID 0000.0001) ADWRITE: tid,vid, irec, length, prec(x2)=    41    54     2      672  8 64 fname=tapelev2_54_the_main_loop_runoff0
(PID.TID 0000.0001) ADWRITE:  tapeFileCounter =   358
(PID.TID 0000.0001) ADWRITE: tid,vid, irec, length, prec(x2)=    41    55     2      672  8 64 fname=tapelev2_55_the_main_loop_runoff1
(PID.TID 0000.0001) ADWRITE:  tapeFileCounter =   359
(PID.TID 0000.0001) ADWRITE: tid,vid, irec, length, prec(x2)=    41    56     2      672  8 64 fname=tapelev2_56_the_main_loop_apressure0
(PID.TID 0000.0001) ADWRITE:  tapeFileCounter =   360
(PID.TID 0000.0001) ADWRITE: tid,vid, irec, length, prec(x2)=    41    57     2      672  8 64 fname=tapelev2_57_the_main_loop_apressure1
(PID.TID 0000.0001) ADWRITE:  tapeFileCounter =   361
(PID.TID 0000.0001) ADWRITE: tid,vid, irec, length, prec(x2)=    41    58     2      672  8 64 fname=tapelev2_58_the_main_loop_siceload
(PID.TID 0000.0001) ADWRITE:  tapeFileCounter =   362
(PID.TID 0000.0001) ADWRITE: tid,vid, irec, length, prec(x2)=    41    59     2      672  8 64 fname=tapelev2_59_the_main_loop_climsss0
(PID.TID 0000.0001) ADWRITE:  tapeFileCounter =   363
(PID.TID 0000.0001) ADWRITE: tid,vid, irec, length, prec(x2)=    41    60     2      672  8 64 fname=tapelev2_60_the_main_loop_climsss1
(PID.TID 0000.0001) ADWRITE:  tapeFileCounter =   364
(PID.TID 0000.0001) ADWRITE: tid,vid, irec, length, prec(x2)=    41    61     2      672  8 64 fname=tapelev2_61_the_main_loop_climsst0
(PID.TID 0000.0001) ADWRITE:  tapeFileCounter =   365
(PID.TID 0000.0001) ADWRITE: tid,vid, irec, length, prec(x2)=    41    62     2      672  8 64 fname=tapelev2_62_the_main_loop_climsst1
(PID.TID 0000.0001) ADWRITE:  tapeFileCounter =   366
(PID.TID 0000.0001) ADWRITE: tid,vid, irec, length, prec(x2)=    41    63     2      672  8 64 fname=tapelev2_63_the_main_loop_saltflx0
(PID.TID 0000.0001) ADWRITE:  tapeFileCounter =   367
(PID.TID 0000.0001) ADWRITE: tid,vid, irec, length, prec(x2)=    41    64     2      672  8 64 fname=tapelev2_64_the_main_loop_saltflx1
(PID.TID 0000.0001) ADWRITE:  tapeFileCounter =   368
(PID.TID 0000.0001) ADWRITE: tid,vid, irec, length, prec(x2)=    41    65     2      672  8 64 fname=tapelev2_65_the_main_loop_aqh0
(PID.TID 0000.0001) ADWRITE:  tapeFileCounter =   369
(PID.TID 0000.0001) ADWRITE: tid,vid, irec, length, prec(x2)=    41    66     2      672  8 64 fname=tapelev2_66_the_main_loop_aqh1
(PID.TID 0000.0001) ADWRITE:  tapeFileCounter =   370
(PID.TID 0000.0001) ADWRITE: tid,vid, irec, length, prec(x2)=    41    67     2      672  8 64 fname=tapelev2_67_the_main_loop_atemp0
(PID.TID 0000.0001) ADWRITE:  tapeFileCounter =   371
(PID.TID 0000.0001) ADWRITE: tid,vid, irec, length, prec(x2)=    41    68     2      672  8 64 fname=tapelev2_68_the_main_loop_atemp1
(PID.TID 0000.0001) ADWRITE:  tapeFileCounter =   372
(PID.TID 0000.0001) ADWRITE: tid,vid, irec, length, prec(x2)=    41    69     2      672  8 64 fname=tapelev2_69_the_main_loop_precip0
(PID.TID 0000.0001) ADWRITE:  tapeFileCounter =   373
(PID.TID 0000.0001) ADWRITE: tid,vid, irec, length, prec(x2)=    41    70     2      672  8 64 fname=tapelev2_70_the_main_loop_precip1
(PID.TID 0000.0001) ADWRITE:  tapeFileCounter =   374
(PID.TID 0000.0001) ADWRITE: tid,vid, irec, length, prec(x2)=    41    73     2      672  8 64 fname=tapelev2_73_the_main_loop_snowprecip0
(PID.TID 0000.0001) ADWRITE:  tapeFileCounter =   375
(PID.TID 0000.0001) ADWRITE: tid,vid, irec, length, prec(x2)=    41    74     2      672  8 64 fname=tapelev2_74_the_main_loop_snowprecip1
(PID.TID 0000.0001) ADWRITE:  tapeFileCounter =   376
(PID.TID 0000.0001) ADWRITE: tid,vid, irec, length, prec(x2)=    41    75     2      672  8 64 fname=tapelev2_75_the_main_loop_swdown0
(PID.TID 0000.0001) ADWRITE:  tapeFileCounter =   377
(PID.TID 0000.0001) ADWRITE: tid,vid, irec, length, prec(x2)=    41    76     2      672  8 64 fname=tapelev2_76_the_main_loop_swdown1
(PID.TID 0000.0001) ADWRITE:  tapeFileCounter =   378
(PID.TID 0000.0001) ADWRITE: tid,vid, irec, length, prec(x2)=    41    77     2      672  8 64 fname=tapelev2_77_the_main_loop_lwdown0
(PID.TID 0000.0001) ADWRITE:  tapeFileCounter =   379
(PID.TID 0000.0001) ADWRITE: tid,vid, irec, length, prec(x2)=    41    78     2      672  8 64 fname=tapelev2_78_the_main_loop_lwdown1
(PID.TID 0000.0001) ADWRITE:  tapeFileCounter =   380
(PID.TID 0000.0001) ADWRITE: tid,vid, irec, length, prec(x2)=    41    79     2      672  8 64 fname=tapelev2_79_the_main_loop_uwind0
(PID.TID 0000.0001) ADWRITE:  tapeFileCounter =   381
(PID.TID 0000.0001) ADWRITE: tid,vid, irec, length, prec(x2)=    41    80     2      672  8 64 fname=tapelev2_80_the_main_loop_uwind1
(PID.TID 0000.0001) ADWRITE:  tapeFileCounter =   382
(PID.TID 0000.0001) ADWRITE: tid,vid, irec, length, prec(x2)=    41    81     2      672  8 64 fname=tapelev2_81_the_main_loop_vwind0
(PID.TID 0000.0001) ADWRITE:  tapeFileCounter =   383
(PID.TID 0000.0001) ADWRITE: tid,vid, irec, length, prec(x2)=    41    82     2      672  8 64 fname=tapelev2_82_the_main_loop_vwind1
(PID.TID 0000.0001) ADWRITE:  tapeFileCounter =   384
(PID.TID 0000.0001) ADWRITE: tid,vid, irec, length, prec(x2)=    41    83     2     6048  8 64 fname=tapelev2_83_the_main_loop_xx_gentim2d
(PID.TID 0000.0001) ADWRITE:  tapeFileCounter =   385
(PID.TID 0000.0001) ADWRITE:  tapeFileCounter =   386
(PID.TID 0000.0001) ADWRITE:  tapeFileCounter =   387
(PID.TID 0000.0001) ADWRITE:  tapeFileCounter =   388
(PID.TID 0000.0001) ADWRITE:  tapeFileCounter =   389
(PID.TID 0000.0001) ADWRITE:  tapeFileCounter =   390
(PID.TID 0000.0001) ADWRITE:  tapeFileCounter =   391
(PID.TID 0000.0001) ADWRITE:  tapeFileCounter =   392
(PID.TID 0000.0001) ADWRITE:  tapeFileCounter =   393
(PID.TID 0000.0001) ADWRITE: tid,vid, irec, length, prec(x2)=    41    84     2     6048  8 64 fname=tapelev2_84_the_main_loop_xx_gentim2d0
(PID.TID 0000.0001) ADWRITE:  tapeFileCounter =   394
(PID.TID 0000.0001) ADWRITE:  tapeFileCounter =   395
(PID.TID 0000.0001) ADWRITE:  tapeFileCounter =   396
(PID.TID 0000.0001) ADWRITE:  tapeFileCounter =   397
(PID.TID 0000.0001) ADWRITE:  tapeFileCounter =   398
(PID.TID 0000.0001) ADWRITE:  tapeFileCounter =   399
(PID.TID 0000.0001) ADWRITE:  tapeFileCounter =   400
(PID.TID 0000.0001) ADWRITE:  tapeFileCounter =   401
(PID.TID 0000.0001) ADWRITE:  tapeFileCounter =   402
(PID.TID 0000.0001) ADWRITE: tid,vid, irec, length, prec(x2)=    41    85     2     6048  8 64 fname=tapelev2_85_the_main_loop_xx_gentim2d1
(PID.TID 0000.0001) ADWRITE:  tapeFileCounter =   403
(PID.TID 0000.0001) ADWRITE:  tapeFileCounter =   404
(PID.TID 0000.0001) ADWRITE:  tapeFileCounter =   405
(PID.TID 0000.0001) ADWRITE:  tapeFileCounter =   406
(PID.TID 0000.0001) ADWRITE:  tapeFileCounter =   407
(PID.TID 0000.0001) ADWRITE:  tapeFileCounter =   408
(PID.TID 0000.0001) ADWRITE:  tapeFileCounter =   409
(PID.TID 0000.0001) ADWRITE:  tapeFileCounter =   410
(PID.TID 0000.0001) ADWRITE:  tapeFileCounter =   411
(PID.TID 0000.0001) ADWRITE: tid,vid, irec, length, prec(x2)=    41    87     2      672  8 64 fname=tapelev2_87_the_main_loop_phihydlow
(PID.TID 0000.0001) ADWRITE:  tapeFileCounter =   412
(PID.TID 0000.0001) ADWRITE: tid,vid, irec, length, prec(x2)=    41    88     2      672  8 64 fname=tapelev2_88_the_main_loop_area
(PID.TID 0000.0001) ADWRITE:  tapeFileCounter =   413
(PID.TID 0000.0001) ADWRITE: tid,vid, irec, length, prec(x2)=    41    89     2      672  8 64 fname=tapelev2_89_the_main_loop_heff
(PID.TID 0000.0001) ADWRITE:  tapeFileCounter =   414
(PID.TID 0000.0001) ADWRITE: tid,vid, irec, length, prec(x2)=    41    90     2      672  8 64 fname=tapelev2_90_the_main_loop_hsnow
(PID.TID 0000.0001) ADWRITE:  tapeFileCounter =   415
(PID.TID 0000.0001) ADWRITE: tid,vid, irec, length, prec(x2)=    41    92     2      672  8 64 fname=tapelev2_92_the_main_loop_uice
(PID.TID 0000.0001) ADWRITE:  tapeFileCounter =   416
(PID.TID 0000.0001) ADWRITE: tid,vid, irec, length, prec(x2)=    41    93     2      672  8 64 fname=tapelev2_93_the_main_loop_vice
(PID.TID 0000.0001) ADWRITE:  tapeFileCounter =   417
(PID.TID 0000.0001) ADWRITE: tid,vid, irec, length, prec(x2)=    41    96     2     4704  8 64 fname=tapelev2_96_the_main_loop_tices
(PID.TID 0000.0001) ADWRITE:  tapeFileCounter =   418
(PID.TID 0000.0001) ADWRITE:  tapeFileCounter =   419
(PID.TID 0000.0001) ADWRITE:  tapeFileCounter =   420
(PID.TID 0000.0001) ADWRITE:  tapeFileCounter =   421
(PID.TID 0000.0001) ADWRITE:  tapeFileCounter =   422
(PID.TID 0000.0001) ADWRITE:  tapeFileCounter =   423
(PID.TID 0000.0001) ADWRITE:  tapeFileCounter =   424
(PID.TID 0000.0001) ADWRITE: tid,vid, irec, length, prec(x2)=    41    97     2      672  8 64 fname=tapelev2_97_the_main_loop_dwatn
(PID.TID 0000.0001) ADWRITE:  tapeFileCounter =   425
(PID.TID 0000.0001) ADWRITE: tid,vid, irec, length, prec(x2)=    41    98     2      672  8 64 fname=tapelev2_98_the_main_loop_stressdivergencex
(PID.TID 0000.0001) ADWRITE:  tapeFileCounter =   426
(PID.TID 0000.0001) ADWRITE: tid,vid, irec, length, prec(x2)=    41    99     2      672  8 64 fname=tapelev2_99_the_main_loop_stressdivergencey
(PID.TID 0000.0001) ADWRITE:  tapeFileCounter =   427
(PID.TID 0000.0001) ADWRITE: tid,vid, irec, length, prec(x2)=    41   100     2      672  8 64 fname=tapelev2_100_the_main_loop_seaice_sigma1
(PID.TID 0000.0001) ADWRITE:  tapeFileCounter =   428
(PID.TID 0000.0001) ADWRITE: tid,vid, irec, length, prec(x2)=    41   101     2      672  8 64 fname=tapelev2_101_the_main_loop_seaice_sigma2
(PID.TID 0000.0001) ADWRITE:  tapeFileCounter =   429
(PID.TID 0000.0001) ADWRITE: tid,vid, irec, length, prec(x2)=    41   102     2      672  8 64 fname=tapelev2_102_the_main_loop_seaice_sigma12
(PID.TID 0000.0001) ADWRITE:  tapeFileCounter =   430
(PID.TID 0000.0001) ADWRITE: tid,vid, irec, length, prec(x2)=    41   103     2      672  8 64 fname=tapelev2_103_the_main_loop_hsalt
(PID.TID 0000.0001) ADWRITE:  tapeFileCounter =   431
(PID.TID 0000.0001) whio : write lev 2 rec   2
(PID.TID 0000.0001)  MDS_READ_FIELD: opening global file: xx_atemp.effective.0000000001.data
(PID.TID 0000.0001) EXF_SET_FLD: processing field "climsss",  file: SSS_monthly.labsea1979
(PID.TID 0000.0001) EXF_SET_FLD:   myIter, count0, count1:         2      1      2
(PID.TID 0000.0001) EXF_SET_FLD:   first, changed, fac:   F   F    0.49726775956284153
(PID.TID 0000.0001) EXF_SET_FLD: processing field "uwind",  file: u10m.labsea1979
(PID.TID 0000.0001) EXF_SET_FLD:   myIter, count0, count1:         2      1      2
(PID.TID 0000.0001) EXF_SET_FLD:   first, changed, fac:   F   F    0.49726775956284153
(PID.TID 0000.0001) EXF_SET_FLD: processing field "vwind",  file: v10m.labsea1979
(PID.TID 0000.0001) EXF_SET_FLD:   myIter, count0, count1:         2      1      2
(PID.TID 0000.0001) EXF_SET_FLD:   first, changed, fac:   F   F    0.49726775956284153
(PID.TID 0000.0001) EXF_SET_FLD: processing field "atemp",  file: tair.labsea1979
(PID.TID 0000.0001) EXF_SET_FLD:   myIter, count0, count1:         2      1      2
(PID.TID 0000.0001) EXF_SET_FLD:   first, changed, fac:   F   F    0.49726775956284153
(PID.TID 0000.0001) EXF_SET_FLD: processing field "aqh",  file: qa.labsea1979
(PID.TID 0000.0001) EXF_SET_FLD:   myIter, count0, count1:         2      1      2
(PID.TID 0000.0001) EXF_SET_FLD:   first, changed, fac:   F   F    0.49726775956284153
(PID.TID 0000.0001) EXF_SET_FLD: processing field "precip",  file: prate.labsea1979
(PID.TID 0000.0001) EXF_SET_FLD:   myIter, count0, count1:         2      1      2
(PID.TID 0000.0001) EXF_SET_FLD:   first, changed, fac:   F   F    0.49726775956284153
(PID.TID 0000.0001) EXF_SET_FLD: processing field "swdown",  file: fsh.labsea1979
(PID.TID 0000.0001) EXF_SET_FLD:   myIter, count0, count1:         2      1      2
(PID.TID 0000.0001) EXF_SET_FLD:   first, changed, fac:   F   F    0.49726775956284153
(PID.TID 0000.0001) EXF_SET_FLD: processing field "lwdown",  file: flo.labsea1979
(PID.TID 0000.0001) EXF_SET_FLD:   myIter, count0, count1:         2      1      2
(PID.TID 0000.0001) EXF_SET_FLD:   first, changed, fac:   F   F    0.49726775956284153
DEBUG_STATS_RL: Uice pre  iter (SEAICE_LSR  1)  min= -2.72590911190358E-03
DEBUG_STATS_RL: Uice pre  iter (SEAICE_LSR  1)  max=  1.84821888363615E-01
DEBUG_STATS_RL: Uice pre  iter (SEAICE_LSR  1) mean=  4.43171854916750E-02
DEBUG_STATS_RL: Uice pre  iter (SEAICE_LSR  1) S.D.=  5.55969094951718E-02
DEBUG_STATS_RL: Vice pre  iter (SEAICE_LSR  1)  min= -3.16987209121493E-02
DEBUG_STATS_RL: Vice pre  iter (SEAICE_LSR  1)  max=  6.25866618672353E-02
DEBUG_STATS_RL: Vice pre  iter (SEAICE_LSR  1) mean= -5.92146683087827E-03
DEBUG_STATS_RL: Vice pre  iter (SEAICE_LSR  1) S.D.=  1.77615498820519E-02
DEBUG_STATS_RL: Uice pre  iter (SEAICE_LSR  2)  min= -3.50206878134750E-03
DEBUG_STATS_RL: Uice pre  iter (SEAICE_LSR  2)  max=  1.92025155896598E-01
DEBUG_STATS_RL: Uice pre  iter (SEAICE_LSR  2) mean=  5.29589963328407E-02
DEBUG_STATS_RL: Uice pre  iter (SEAICE_LSR  2) S.D.=  5.86189159299396E-02
DEBUG_STATS_RL: Vice pre  iter (SEAICE_LSR  2)  min= -6.12456112266708E-02
DEBUG_STATS_RL: Vice pre  iter (SEAICE_LSR  2)  max=  9.55317561460538E-02
DEBUG_STATS_RL: Vice pre  iter (SEAICE_LSR  2) mean= -1.11523016932042E-02
DEBUG_STATS_RL: Vice pre  iter (SEAICE_LSR  2) S.D.=  2.73762100034371E-02
DEBUG_STATS_RL:                EtaN (DYNAMICS)  min= -1.28344439274904E-01
DEBUG_STATS_RL:                EtaN (DYNAMICS)  max=  2.88598696737302E-01
DEBUG_STATS_RL:                EtaN (DYNAMICS) mean= -1.59051448134389E-03
DEBUG_STATS_RL:                EtaN (DYNAMICS) S.D.=  6.75540369544425E-02
DEBUG_STATS_RL:                Uvel (DYNAMICS)  min= -4.02432897586652E-02
DEBUG_STATS_RL:                Uvel (DYNAMICS)  max=  3.23458159885820E-02
DEBUG_STATS_RL:                Uvel (DYNAMICS) mean=  6.75465330206794E-04
DEBUG_STATS_RL:                Uvel (DYNAMICS) S.D.=  7.33761384667267E-03
DEBUG_STATS_RL:                Vvel (DYNAMICS)  min= -1.64862319058740E-02
DEBUG_STATS_RL:                Vvel (DYNAMICS)  max=  4.21759382970963E-02
DEBUG_STATS_RL:                Vvel (DYNAMICS) mean=  1.82858022907397E-03
DEBUG_STATS_RL:                Vvel (DYNAMICS) S.D.=  8.08424055894123E-03
DEBUG_STATS_RL:                Wvel (DYNAMICS)  min= -6.56490529174610E-05
DEBUG_STATS_RL:                Wvel (DYNAMICS)  max=  1.68683217295647E-04
DEBUG_STATS_RL:                Wvel (DYNAMICS) mean= -4.30739495112636E-07
DEBUG_STATS_RL:                Wvel (DYNAMICS) S.D.=  1.89945067258204E-05
DEBUG_STATS_RL:               Theta (DYNAMICS)  min= -1.83156742552816E+00
DEBUG_STATS_RL:               Theta (DYNAMICS)  max=  1.32606612249659E+01
DEBUG_STATS_RL:               Theta (DYNAMICS) mean=  2.43057765558689E+00
DEBUG_STATS_RL:               Theta (DYNAMICS) S.D.=  2.55246643542934E+00
DEBUG_STATS_RL:                Salt (DYNAMICS)  min=  2.76092906345221E+01
DEBUG_STATS_RL:                Salt (DYNAMICS)  max=  3.54509236522671E+01
DEBUG_STATS_RL:                Salt (DYNAMICS) mean=  3.39413044254433E+01
DEBUG_STATS_RL:                Salt (DYNAMICS) S.D.=  1.14495872836586E+00
DEBUG_STATS_RL:                  Gu (DYNAMICS)  min= -3.23510557472041E-02
DEBUG_STATS_RL:                  Gu (DYNAMICS)  max=  5.80377411255949E-02
DEBUG_STATS_RL:                  Gu (DYNAMICS) mean= -2.97572069526763E-04
DEBUG_STATS_RL:                  Gu (DYNAMICS) S.D.=  9.92934455351407E-03
DEBUG_STATS_RL:                  Gv (DYNAMICS)  min= -4.01882757136262E-02
DEBUG_STATS_RL:                  Gv (DYNAMICS)  max=  3.49568132071784E-02
DEBUG_STATS_RL:                  Gv (DYNAMICS) mean= -2.47632966121230E-03
DEBUG_STATS_RL:                  Gv (DYNAMICS) S.D.=  9.60357312382106E-03
DEBUG_STATS_RL:               GuNm1 (DYNAMICS)  min= -2.64915263690508E-07
DEBUG_STATS_RL:               GuNm1 (DYNAMICS)  max=  1.75889100747609E-07
DEBUG_STATS_RL:               GuNm1 (DYNAMICS) mean=  2.42191647085610E-09
DEBUG_STATS_RL:               GuNm1 (DYNAMICS) S.D.=  4.49076324943060E-08
DEBUG_STATS_RL:               GvNm1 (DYNAMICS)  min= -8.47298200116578E-08
DEBUG_STATS_RL:               GvNm1 (DYNAMICS)  max=  7.67749697778875E-08
DEBUG_STATS_RL:               GvNm1 (DYNAMICS) mean= -4.71533361262523E-10
DEBUG_STATS_RL:               GvNm1 (DYNAMICS) S.D.=  2.04113373444437E-08
DEBUG_STATS_RL:               GtNm1 (DYNAMICS)  min=  0.00000000000000E+00
DEBUG_STATS_RL:               GtNm1 (DYNAMICS)  max=  0.00000000000000E+00
DEBUG_STATS_RL:               GtNm1 (DYNAMICS) mean=  0.00000000000000E+00
DEBUG_STATS_RL:               GtNm1 (DYNAMICS) S.D.=  0.00000000000000E+00
DEBUG_STATS_RL:               GsNm1 (DYNAMICS)  min=  0.00000000000000E+00
DEBUG_STATS_RL:               GsNm1 (DYNAMICS)  max=  0.00000000000000E+00
DEBUG_STATS_RL:               GsNm1 (DYNAMICS) mean=  0.00000000000000E+00
DEBUG_STATS_RL:               GsNm1 (DYNAMICS) S.D.=  0.00000000000000E+00
DEBUG_STATS_RL:    cg2d_b (SOLVE_FOR_PRESSURE)  min= -7.51696131718231E+03
DEBUG_STATS_RL:    cg2d_b (SOLVE_FOR_PRESSURE)  max=  2.21291016221046E+03
DEBUG_STATS_RL:    cg2d_b (SOLVE_FOR_PRESSURE) mean=  4.14578001558160E-13
DEBUG_STATS_RL:    cg2d_b (SOLVE_FOR_PRESSURE) S.D.=  9.35355930257332E+02
 cg2d: Sum(rhs),rhsMax =   8.13238365537927E-15  1.20985040186716E+00
DEBUG_STATS_RL:    cg2d_x (SOLVE_FOR_PRESSURE)  min= -1.39137659519015E+00
DEBUG_STATS_RL:    cg2d_x (SOLVE_FOR_PRESSURE)  max=  3.06244143644373E+00
DEBUG_STATS_RL:    cg2d_x (SOLVE_FOR_PRESSURE) mean= -2.04738907200057E-02
DEBUG_STATS_RL:    cg2d_x (SOLVE_FOR_PRESSURE) S.D.=  7.54254787473285E-01
DEBUG_STATS_RL:          Uvel (THERMODYNAMICS)  min= -4.85747443135375E-02
DEBUG_STATS_RL:          Uvel (THERMODYNAMICS)  max=  6.48566534974146E-02
DEBUG_STATS_RL:          Uvel (THERMODYNAMICS) mean=  2.83347825460039E-03
DEBUG_STATS_RL:          Uvel (THERMODYNAMICS) S.D.=  1.04406948546660E-02
DEBUG_STATS_RL:          Vvel (THERMODYNAMICS)  min= -2.93630589501538E-02
DEBUG_STATS_RL:          Vvel (THERMODYNAMICS)  max=  5.51081422495760E-02
DEBUG_STATS_RL:          Vvel (THERMODYNAMICS) mean=  1.89398823345572E-03
DEBUG_STATS_RL:          Vvel (THERMODYNAMICS) S.D.=  1.13685531753008E-02
DEBUG_STATS_RL:          Wvel (THERMODYNAMICS)  min= -1.01835019199986E-04
DEBUG_STATS_RL:          Wvel (THERMODYNAMICS)  max=  2.18299385766785E-04
DEBUG_STATS_RL:          Wvel (THERMODYNAMICS) mean= -3.58449213338056E-07
DEBUG_STATS_RL:          Wvel (THERMODYNAMICS) S.D.=  2.04428902649890E-05
DEBUG_STATS_RL:         Theta (THERMODYNAMICS)  min= -1.93250363389783E+00
DEBUG_STATS_RL:         Theta (THERMODYNAMICS)  max=  1.32631363173882E+01
DEBUG_STATS_RL:         Theta (THERMODYNAMICS) mean=  2.41867029854828E+00
DEBUG_STATS_RL:         Theta (THERMODYNAMICS) S.D.=  2.57126546321788E+00
DEBUG_STATS_RL:          Salt (THERMODYNAMICS)  min=  2.76143299539290E+01
DEBUG_STATS_RL:          Salt (THERMODYNAMICS)  max=  3.54510577106203E+01
DEBUG_STATS_RL:          Salt (THERMODYNAMICS) mean=  3.39375783473304E+01
DEBUG_STATS_RL:          Salt (THERMODYNAMICS) S.D.=  1.15271478316181E+00
DEBUG_STATS_RL:         GtNm1 (THERMODYNAMICS)  min=  0.00000000000000E+00
DEBUG_STATS_RL:         GtNm1 (THERMODYNAMICS)  max=  0.00000000000000E+00
DEBUG_STATS_RL:         GtNm1 (THERMODYNAMICS) mean=  0.00000000000000E+00
DEBUG_STATS_RL:         GtNm1 (THERMODYNAMICS) S.D.=  0.00000000000000E+00
DEBUG_STATS_RL:         GsNm1 (THERMODYNAMICS)  min=  0.00000000000000E+00
DEBUG_STATS_RL:         GsNm1 (THERMODYNAMICS)  max=  0.00000000000000E+00
DEBUG_STATS_RL:         GsNm1 (THERMODYNAMICS) mean=  0.00000000000000E+00
DEBUG_STATS_RL:         GsNm1 (THERMODYNAMICS) S.D.=  0.00000000000000E+00
(PID.TID 0000.0001)  MDS_READ_FIELD: opening global file: xx_atemp.effective.0000000001.data
(PID.TID 0000.0001) EXF_SET_FLD: processing field "climsss",  file: SSS_monthly.labsea1979
(PID.TID 0000.0001) EXF_SET_FLD:   myIter, count0, count1:         3      1      2
(PID.TID 0000.0001) EXF_SET_FLD:   first, changed, fac:   F   F    0.49590163934426235
(PID.TID 0000.0001) EXF_SET_FLD: processing field "uwind",  file: u10m.labsea1979
(PID.TID 0000.0001) EXF_SET_FLD:   myIter, count0, count1:         3      1      2
(PID.TID 0000.0001) EXF_SET_FLD:   first, changed, fac:   F   F    0.49590163934426235
(PID.TID 0000.0001) EXF_SET_FLD: processing field "vwind",  file: v10m.labsea1979
(PID.TID 0000.0001) EXF_SET_FLD:   myIter, count0, count1:         3      1      2
(PID.TID 0000.0001) EXF_SET_FLD:   first, changed, fac:   F   F    0.49590163934426235
(PID.TID 0000.0001) EXF_SET_FLD: processing field "atemp",  file: tair.labsea1979
(PID.TID 0000.0001) EXF_SET_FLD:   myIter, count0, count1:         3      1      2
(PID.TID 0000.0001) EXF_SET_FLD:   first, changed, fac:   F   F    0.49590163934426235
(PID.TID 0000.0001) EXF_SET_FLD: processing field "aqh",  file: qa.labsea1979
(PID.TID 0000.0001) EXF_SET_FLD:   myIter, count0, count1:         3      1      2
(PID.TID 0000.0001) EXF_SET_FLD:   first, changed, fac:   F   F    0.49590163934426235
(PID.TID 0000.0001) EXF_SET_FLD: processing field "precip",  file: prate.labsea1979
(PID.TID 0000.0001) EXF_SET_FLD:   myIter, count0, count1:         3      1      2
(PID.TID 0000.0001) EXF_SET_FLD:   first, changed, fac:   F   F    0.49590163934426235
(PID.TID 0000.0001) EXF_SET_FLD: processing field "swdown",  file: fsh.labsea1979
(PID.TID 0000.0001) EXF_SET_FLD:   myIter, count0, count1:         3      1      2
(PID.TID 0000.0001) EXF_SET_FLD:   first, changed, fac:   F   F    0.49590163934426235
(PID.TID 0000.0001) EXF_SET_FLD: processing field "lwdown",  file: flo.labsea1979
(PID.TID 0000.0001) EXF_SET_FLD:   myIter, count0, count1:         3      1      2
(PID.TID 0000.0001) EXF_SET_FLD:   first, changed, fac:   F   F    0.49590163934426235
DEBUG_STATS_RL: Uice pre  iter (SEAICE_LSR  1)  min= -4.89522325595929E-03
DEBUG_STATS_RL: Uice pre  iter (SEAICE_LSR  1)  max=  1.61355517756085E-01
DEBUG_STATS_RL: Uice pre  iter (SEAICE_LSR  1) mean=  5.67051326035122E-02
DEBUG_STATS_RL: Uice pre  iter (SEAICE_LSR  1) S.D.=  5.73816154995328E-02
DEBUG_STATS_RL: Vice pre  iter (SEAICE_LSR  1)  min= -1.51246540995869E-01
DEBUG_STATS_RL: Vice pre  iter (SEAICE_LSR  1)  max=  8.91076561218486E-02
DEBUG_STATS_RL: Vice pre  iter (SEAICE_LSR  1) mean= -1.97403473770901E-02
DEBUG_STATS_RL: Vice pre  iter (SEAICE_LSR  1) S.D.=  3.94189649069372E-02
DEBUG_STATS_RL: Uice pre  iter (SEAICE_LSR  2)  min= -5.42054480415845E-03
DEBUG_STATS_RL: Uice pre  iter (SEAICE_LSR  2)  max=  2.02641844081809E-01
DEBUG_STATS_RL: Uice pre  iter (SEAICE_LSR  2) mean=  6.47762112260320E-02
DEBUG_STATS_RL: Uice pre  iter (SEAICE_LSR  2) S.D.=  6.71608790533457E-02
DEBUG_STATS_RL: Vice pre  iter (SEAICE_LSR  2)  min= -1.45601126352230E-01
DEBUG_STATS_RL: Vice pre  iter (SEAICE_LSR  2)  max=  1.04145470460115E-01
DEBUG_STATS_RL: Vice pre  iter (SEAICE_LSR  2) mean= -2.31827417442921E-02
DEBUG_STATS_RL: Vice pre  iter (SEAICE_LSR  2) S.D.=  4.33109039412475E-02
DEBUG_STATS_RL:                EtaN (DYNAMICS)  min= -1.41751558253204E-01
DEBUG_STATS_RL:                EtaN (DYNAMICS)  max=  3.11997375243870E-01
DEBUG_STATS_RL:                EtaN (DYNAMICS) mean= -2.08585218631625E-03
DEBUG_STATS_RL:                EtaN (DYNAMICS) S.D.=  7.68424535915567E-02
DEBUG_STATS_RL:                Uvel (DYNAMICS)  min= -4.85747443135375E-02
DEBUG_STATS_RL:                Uvel (DYNAMICS)  max=  6.48566534974146E-02
DEBUG_STATS_RL:                Uvel (DYNAMICS) mean=  2.83347825460039E-03
DEBUG_STATS_RL:                Uvel (DYNAMICS) S.D.=  1.04406948546660E-02
DEBUG_STATS_RL:                Vvel (DYNAMICS)  min= -2.93630589501538E-02
DEBUG_STATS_RL:                Vvel (DYNAMICS)  max=  5.51081422495760E-02
DEBUG_STATS_RL:                Vvel (DYNAMICS) mean=  1.89398823345572E-03
DEBUG_STATS_RL:                Vvel (DYNAMICS) S.D.=  1.13685531753008E-02
DEBUG_STATS_RL:                Wvel (DYNAMICS)  min= -1.01835019199986E-04
DEBUG_STATS_RL:                Wvel (DYNAMICS)  max=  2.18299385766785E-04
DEBUG_STATS_RL:                Wvel (DYNAMICS) mean= -3.58449213338056E-07
DEBUG_STATS_RL:                Wvel (DYNAMICS) S.D.=  2.04428902649890E-05
DEBUG_STATS_RL:               Theta (DYNAMICS)  min= -1.93250363389783E+00
DEBUG_STATS_RL:               Theta (DYNAMICS)  max=  1.32631363173882E+01
DEBUG_STATS_RL:               Theta (DYNAMICS) mean=  2.41867029854828E+00
DEBUG_STATS_RL:               Theta (DYNAMICS) S.D.=  2.57126546321788E+00
DEBUG_STATS_RL:                Salt (DYNAMICS)  min=  2.76143299539290E+01
DEBUG_STATS_RL:                Salt (DYNAMICS)  max=  3.54510577106203E+01
DEBUG_STATS_RL:                Salt (DYNAMICS) mean=  3.39375783473304E+01
DEBUG_STATS_RL:                Salt (DYNAMICS) S.D.=  1.15271478316181E+00
DEBUG_STATS_RL:                  Gu (DYNAMICS)  min= -3.31660092548350E-02
DEBUG_STATS_RL:                  Gu (DYNAMICS)  max=  7.71641715782451E-02
DEBUG_STATS_RL:                  Gu (DYNAMICS) mean=  1.79729889203216E-03
DEBUG_STATS_RL:                  Gu (DYNAMICS) S.D.=  1.23549872720709E-02
DEBUG_STATS_RL:                  Gv (DYNAMICS)  min= -6.51102265934831E-02
DEBUG_STATS_RL:                  Gv (DYNAMICS)  max=  4.74792371894019E-02
DEBUG_STATS_RL:                  Gv (DYNAMICS) mean= -3.61268002204907E-03
DEBUG_STATS_RL:                  Gv (DYNAMICS) S.D.=  1.25565096773612E-02
DEBUG_STATS_RL:               GuNm1 (DYNAMICS)  min= -2.57489899416700E-07
DEBUG_STATS_RL:               GuNm1 (DYNAMICS)  max=  1.89368528479167E-07
DEBUG_STATS_RL:               GuNm1 (DYNAMICS) mean=  4.40117075217825E-12
DEBUG_STATS_RL:               GuNm1 (DYNAMICS) S.D.=  4.68821385830656E-08
DEBUG_STATS_RL:               GvNm1 (DYNAMICS)  min= -1.09603640235134E-07
DEBUG_STATS_RL:               GvNm1 (DYNAMICS)  max=  9.62789262154712E-08
DEBUG_STATS_RL:               GvNm1 (DYNAMICS) mean= -8.49526391149606E-10
DEBUG_STATS_RL:               GvNm1 (DYNAMICS) S.D.=  2.55629549792478E-08
DEBUG_STATS_RL:               GtNm1 (DYNAMICS)  min=  0.00000000000000E+00
DEBUG_STATS_RL:               GtNm1 (DYNAMICS)  max=  0.00000000000000E+00
DEBUG_STATS_RL:               GtNm1 (DYNAMICS) mean=  0.00000000000000E+00
DEBUG_STATS_RL:               GtNm1 (DYNAMICS) S.D.=  0.00000000000000E+00
DEBUG_STATS_RL:               GsNm1 (DYNAMICS)  min=  0.00000000000000E+00
DEBUG_STATS_RL:               GsNm1 (DYNAMICS)  max=  0.00000000000000E+00
DEBUG_STATS_RL:               GsNm1 (DYNAMICS) mean=  0.00000000000000E+00
DEBUG_STATS_RL:               GsNm1 (DYNAMICS) S.D.=  0.00000000000000E+00
DEBUG_STATS_RL:    cg2d_b (SOLVE_FOR_PRESSURE)  min= -7.48820843436671E+03
DEBUG_STATS_RL:    cg2d_b (SOLVE_FOR_PRESSURE)  max=  2.19603477106472E+03
DEBUG_STATS_RL:    cg2d_b (SOLVE_FOR_PRESSURE) mean=  2.14489167168116E-13
DEBUG_STATS_RL:    cg2d_b (SOLVE_FOR_PRESSURE) S.D.=  9.20730314173818E+02
 cg2d: Sum(rhs),rhsMax =   5.49560397189452E-15  1.20522264267546E+00
DEBUG_STATS_RL:    cg2d_x (SOLVE_FOR_PRESSURE)  min= -1.31033012419165E+00
DEBUG_STATS_RL:    cg2d_x (SOLVE_FOR_PRESSURE)  max=  3.14089981024926E+00
DEBUG_STATS_RL:    cg2d_x (SOLVE_FOR_PRESSURE) mean= -2.47876044023014E-02
DEBUG_STATS_RL:    cg2d_x (SOLVE_FOR_PRESSURE) S.D.=  7.62604990072166E-01
DEBUG_STATS_RL:          Uvel (THERMODYNAMICS)  min= -4.51228100181699E-02
DEBUG_STATS_RL:          Uvel (THERMODYNAMICS)  max=  8.23946614698039E-02
DEBUG_STATS_RL:          Uvel (THERMODYNAMICS) mean=  4.46006533351786E-03
DEBUG_STATS_RL:          Uvel (THERMODYNAMICS) S.D.=  1.25503402183565E-02
DEBUG_STATS_RL:          Vvel (THERMODYNAMICS)  min= -5.43131072024495E-02
DEBUG_STATS_RL:          Vvel (THERMODYNAMICS)  max=  6.64710959483302E-02
DEBUG_STATS_RL:          Vvel (THERMODYNAMICS) mean=  9.07394962405455E-04
DEBUG_STATS_RL:          Vvel (THERMODYNAMICS) S.D.=  1.42265213439462E-02
DEBUG_STATS_RL:          Wvel (THERMODYNAMICS)  min= -1.50094143875166E-04
DEBUG_STATS_RL:          Wvel (THERMODYNAMICS)  max=  2.67848367720703E-04
DEBUG_STATS_RL:          Wvel (THERMODYNAMICS) mean= -2.83768310637974E-07
DEBUG_STATS_RL:          Wvel (THERMODYNAMICS) S.D.=  2.30755404976203E-05
DEBUG_STATS_RL:         Theta (THERMODYNAMICS)  min= -1.95323356757650E+00
DEBUG_STATS_RL:         Theta (THERMODYNAMICS)  max=  1.32611729219858E+01
DEBUG_STATS_RL:         Theta (THERMODYNAMICS) mean=  2.41624287435038E+00
DEBUG_STATS_RL:         Theta (THERMODYNAMICS) S.D.=  2.57467251754838E+00
DEBUG_STATS_RL:          Salt (THERMODYNAMICS)  min=  2.76192995644599E+01
DEBUG_STATS_RL:          Salt (THERMODYNAMICS)  max=  3.54511687806856E+01
DEBUG_STATS_RL:          Salt (THERMODYNAMICS) mean=  3.39368869963862E+01
DEBUG_STATS_RL:          Salt (THERMODYNAMICS) S.D.=  1.15395653842225E+00
DEBUG_STATS_RL:         GtNm1 (THERMODYNAMICS)  min=  0.00000000000000E+00
DEBUG_STATS_RL:         GtNm1 (THERMODYNAMICS)  max=  0.00000000000000E+00
DEBUG_STATS_RL:         GtNm1 (THERMODYNAMICS) mean=  0.00000000000000E+00
DEBUG_STATS_RL:         GtNm1 (THERMODYNAMICS) S.D.=  0.00000000000000E+00
DEBUG_STATS_RL:         GsNm1 (THERMODYNAMICS)  min=  0.00000000000000E+00
DEBUG_STATS_RL:         GsNm1 (THERMODYNAMICS)  max=  0.00000000000000E+00
DEBUG_STATS_RL:         GsNm1 (THERMODYNAMICS) mean=  0.00000000000000E+00
DEBUG_STATS_RL:         GsNm1 (THERMODYNAMICS) S.D.=  0.00000000000000E+00
(PID.TID 0000.0001) ADREAD:  tid,vid, irec, length, prec(x2)=    41     1     2      672  8 64 fname=tapelev2_1_the_main_loop_etan
(PID.TID 0000.0001) ADREAD:  tid,vid, irec, length, prec(x2)=    41     2     2      672  8 64 fname=tapelev2_2_the_main_loop_taux0
(PID.TID 0000.0001) ADREAD:  tid,vid, irec, length, prec(x2)=    41     3     2      672  8 64 fname=tapelev2_3_the_main_loop_taux1
(PID.TID 0000.0001) ADREAD:  tid,vid, irec, length, prec(x2)=    41     4     2      672  8 64 fname=tapelev2_4_the_main_loop_tauy0
(PID.TID 0000.0001) ADREAD:  tid,vid, irec, length, prec(x2)=    41     5     2      672  8 64 fname=tapelev2_5_the_main_loop_tauy1
(PID.TID 0000.0001) ADREAD:  tid,vid, irec, length, prec(x2)=    41     6     2      672  8 64 fname=tapelev2_6_the_main_loop_qnet0
(PID.TID 0000.0001) ADREAD:  tid,vid, irec, length, prec(x2)=    41     7     2      672  8 64 fname=tapelev2_7_the_main_loop_qnet1
(PID.TID 0000.0001) ADREAD:  tid,vid, irec, length, prec(x2)=    41     8     2      672  8 64 fname=tapelev2_8_the_main_loop_empmr0
(PID.TID 0000.0001) ADREAD:  tid,vid, irec, length, prec(x2)=    41     9     2      672  8 64 fname=tapelev2_9_the_main_loop_empmr1
(PID.TID 0000.0001) ADREAD:  tid,vid, irec, length, prec(x2)=    41    10     2      672  8 64 fname=tapelev2_10_the_main_loop_sst0
(PID.TID 0000.0001) ADREAD:  tid,vid, irec, length, prec(x2)=    41    11     2      672  8 64 fname=tapelev2_11_the_main_loop_sst1
(PID.TID 0000.0001) ADREAD:  tid,vid, irec, length, prec(x2)=    41    12     2      672  8 64 fname=tapelev2_12_the_main_loop_sss0
(PID.TID 0000.0001) ADREAD:  tid,vid, irec, length, prec(x2)=    41    13     2      672  8 64 fname=tapelev2_13_the_main_loop_sss1
(PID.TID 0000.0001) ADREAD:  tid,vid, irec, length, prec(x2)=    41    14     2      672  8 64 fname=tapelev2_14_the_main_loop_saltflux0
(PID.TID 0000.0001) ADREAD:  tid,vid, irec, length, prec(x2)=    41    15     2      672  8 64 fname=tapelev2_15_the_main_loop_saltflux1
(PID.TID 0000.0001) ADREAD:  tid,vid, irec, length, prec(x2)=    41    16     2      672  8 64 fname=tapelev2_16_the_main_loop_qsw0
(PID.TID 0000.0001) ADREAD:  tid,vid, irec, length, prec(x2)=    41    17     2      672  8 64 fname=tapelev2_17_the_main_loop_qsw1
(PID.TID 0000.0001) ADREAD:  tid,vid, irec, length, prec(x2)=    41    18     2      672  8 64 fname=tapelev2_18_the_main_loop_pload0
(PID.TID 0000.0001) ADREAD:  tid,vid, irec, length, prec(x2)=    41    19     2      672  8 64 fname=tapelev2_19_the_main_loop_pload1
(PID.TID 0000.0001) ADREAD:  tid,vid, irec, length, prec(x2)=    41    20     2      672  8 64 fname=tapelev2_20_the_main_loop_etah
(PID.TID 0000.0001) ADREAD:  tid,vid, irec, length, prec(x2)=    41    21     2      672  8 64 fname=tapelev2_21_the_main_loop_detahdt
(PID.TID 0000.0001) ADREAD:  tid,vid, irec, length, prec(x2)=    41    22     2      672  8 64 fname=tapelev2_22_the_main_loop_pmepr
(PID.TID 0000.0001) ADREAD:  tid,vid, irec, length, prec(x2)=    41    23     2    15456  8 64 fname=tapelev2_23_the_main_loop_gtnm1
(PID.TID 0000.0001) ADREAD:  tid,vid, irec, length, prec(x2)=    41    24     2    15456  8 64 fname=tapelev2_24_the_main_loop_gsnm1
(PID.TID 0000.0001) ADREAD:  tid,vid, irec, length, prec(x2)=    41    25     2    15456  8 64 fname=tapelev2_25_the_main_loop_gunm1
(PID.TID 0000.0001) ADREAD:  tid,vid, irec, length, prec(x2)=    41    26     2    15456  8 64 fname=tapelev2_26_the_main_loop_gvnm1
(PID.TID 0000.0001) ADREAD:  tid,vid, irec, length, prec(x2)=    41    27     2    15456  8 64 fname=tapelev2_27_the_main_loop_theta
(PID.TID 0000.0001) ADREAD:  tid,vid, irec, length, prec(x2)=    41    28     2    15456  8 64 fname=tapelev2_28_the_main_loop_salt
(PID.TID 0000.0001) ADREAD:  tid,vid, irec, length, prec(x2)=    41    29     2    15456  8 64 fname=tapelev2_29_the_main_loop_uvel
(PID.TID 0000.0001) ADREAD:  tid,vid, irec, length, prec(x2)=    41    30     2    15456  8 64 fname=tapelev2_30_the_main_loop_vvel
(PID.TID 0000.0001) ADREAD:  tid,vid, irec, length, prec(x2)=    41    31     2    15456  8 64 fname=tapelev2_31_the_main_loop_wvel
(PID.TID 0000.0001) ADREAD:  tid,vid, irec, length, prec(x2)=    41    32     2    15456  8 64 fname=tapelev2_32_the_main_loop_totphihyd
(PID.TID 0000.0001) ADREAD:  tid,vid, irec, length, prec(x2)=    41    35     2    15456  8 64 fname=tapelev2_35_the_main_loop_uveld
(PID.TID 0000.0001) ADREAD:  tid,vid, irec, length, prec(x2)=    41    36     2    15456  8 64 fname=tapelev2_36_the_main_loop_vveld
(PID.TID 0000.0001) ADREAD:  tid,vid, irec, length, prec(x2)=    41    37     2      672  8 64 fname=tapelev2_37_the_main_loop_etanm1
(PID.TID 0000.0001) ADREAD:  tid,vid, irec, length, prec(x2)=    41    38     2    15456  8 64 fname=tapelev2_38_the_main_loop_unm1
(PID.TID 0000.0001) ADREAD:  tid,vid, irec, length, prec(x2)=    41    39     2    15456  8 64 fname=tapelev2_39_the_main_loop_vnm1
(PID.TID 0000.0001) ADREAD:  tid,vid, irec, length, prec(x2)=    41    40     2      672  8 64 fname=tapelev2_40_the_main_loop_areamask0
(PID.TID 0000.0001) ADREAD:  tid,vid, irec, length, prec(x2)=    41    41     2      672  8 64 fname=tapelev2_41_the_main_loop_areamask1
(PID.TID 0000.0001) ADREAD:  tid,vid, irec, length, prec(x2)=    41    42     2      672  8 64 fname=tapelev2_42_the_main_loop_hflux0
(PID.TID 0000.0001) ADREAD:  tid,vid, irec, length, prec(x2)=    41    43     2      672  8 64 fname=tapelev2_43_the_main_loop_hflux1
(PID.TID 0000.0001) ADREAD:  tid,vid, irec, length, prec(x2)=    41    44     2      672  8 64 fname=tapelev2_44_the_main_loop_sflux0
(PID.TID 0000.0001) ADREAD:  tid,vid, irec, length, prec(x2)=    41    45     2      672  8 64 fname=tapelev2_45_the_main_loop_sflux1
(PID.TID 0000.0001) ADREAD:  tid,vid, irec, length, prec(x2)=    41    46     2      672  8 64 fname=tapelev2_46_the_main_loop_ustress0
(PID.TID 0000.0001) ADREAD:  tid,vid, irec, length, prec(x2)=    41    47     2      672  8 64 fname=tapelev2_47_the_main_loop_ustress1
(PID.TID 0000.0001) ADREAD:  tid,vid, irec, length, prec(x2)=    41    48     2      672  8 64 fname=tapelev2_48_the_main_loop_vstress0
(PID.TID 0000.0001) ADREAD:  tid,vid, irec, length, prec(x2)=    41    49     2      672  8 64 fname=tapelev2_49_the_main_loop_vstress1
(PID.TID 0000.0001) ADREAD:  tid,vid, irec, length, prec(x2)=    41    50     2      672  8 64 fname=tapelev2_50_the_main_loop_wspeed0
(PID.TID 0000.0001) ADREAD:  tid,vid, irec, length, prec(x2)=    41    51     2      672  8 64 fname=tapelev2_51_the_main_loop_wspeed1
(PID.TID 0000.0001) ADREAD:  tid,vid, irec, length, prec(x2)=    41    54     2      672  8 64 fname=tapelev2_54_the_main_loop_runoff0
(PID.TID 0000.0001) ADREAD:  tid,vid, irec, length, prec(x2)=    41    55     2      672  8 64 fname=tapelev2_55_the_main_loop_runoff1
(PID.TID 0000.0001) ADREAD:  tid,vid, irec, length, prec(x2)=    41    56     2      672  8 64 fname=tapelev2_56_the_main_loop_apressure0
(PID.TID 0000.0001) ADREAD:  tid,vid, irec, length, prec(x2)=    41    57     2      672  8 64 fname=tapelev2_57_the_main_loop_apressure1
(PID.TID 0000.0001) ADREAD:  tid,vid, irec, length, prec(x2)=    41    58     2      672  8 64 fname=tapelev2_58_the_main_loop_siceload
(PID.TID 0000.0001) ADREAD:  tid,vid, irec, length, prec(x2)=    41    59     2      672  8 64 fname=tapelev2_59_the_main_loop_climsss0
(PID.TID 0000.0001) ADREAD:  tid,vid, irec, length, prec(x2)=    41    60     2      672  8 64 fname=tapelev2_60_the_main_loop_climsss1
(PID.TID 0000.0001) ADREAD:  tid,vid, irec, length, prec(x2)=    41    61     2      672  8 64 fname=tapelev2_61_the_main_loop_climsst0
(PID.TID 0000.0001) ADREAD:  tid,vid, irec, length, prec(x2)=    41    62     2      672  8 64 fname=tapelev2_62_the_main_loop_climsst1
(PID.TID 0000.0001) ADREAD:  tid,vid, irec, length, prec(x2)=    41    63     2      672  8 64 fname=tapelev2_63_the_main_loop_saltflx0
(PID.TID 0000.0001) ADREAD:  tid,vid, irec, length, prec(x2)=    41    64     2      672  8 64 fname=tapelev2_64_the_main_loop_saltflx1
(PID.TID 0000.0001) ADREAD:  tid,vid, irec, length, prec(x2)=    41    65     2      672  8 64 fname=tapelev2_65_the_main_loop_aqh0
(PID.TID 0000.0001) ADREAD:  tid,vid, irec, length, prec(x2)=    41    66     2      672  8 64 fname=tapelev2_66_the_main_loop_aqh1
(PID.TID 0000.0001) ADREAD:  tid,vid, irec, length, prec(x2)=    41    67     2      672  8 64 fname=tapelev2_67_the_main_loop_atemp0
(PID.TID 0000.0001) ADREAD:  tid,vid, irec, length, prec(x2)=    41    68     2      672  8 64 fname=tapelev2_68_the_main_loop_atemp1
(PID.TID 0000.0001) ADREAD:  tid,vid, irec, length, prec(x2)=    41    69     2      672  8 64 fname=tapelev2_69_the_main_loop_precip0
(PID.TID 0000.0001) ADREAD:  tid,vid, irec, length, prec(x2)=    41    70     2      672  8 64 fname=tapelev2_70_the_main_loop_precip1
(PID.TID 0000.0001) ADREAD:  tid,vid, irec, length, prec(x2)=    41    73     2      672  8 64 fname=tapelev2_73_the_main_loop_snowprecip0
(PID.TID 0000.0001) ADREAD:  tid,vid, irec, length, prec(x2)=    41    74     2      672  8 64 fname=tapelev2_74_the_main_loop_snowprecip1
(PID.TID 0000.0001) ADREAD:  tid,vid, irec, length, prec(x2)=    41    75     2      672  8 64 fname=tapelev2_75_the_main_loop_swdown0
(PID.TID 0000.0001) ADREAD:  tid,vid, irec, length, prec(x2)=    41    76     2      672  8 64 fname=tapelev2_76_the_main_loop_swdown1
(PID.TID 0000.0001) ADREAD:  tid,vid, irec, length, prec(x2)=    41    77     2      672  8 64 fname=tapelev2_77_the_main_loop_lwdown0
(PID.TID 0000.0001) ADREAD:  tid,vid, irec, length, prec(x2)=    41    78     2      672  8 64 fname=tapelev2_78_the_main_loop_lwdown1
(PID.TID 0000.0001) ADREAD:  tid,vid, irec, length, prec(x2)=    41    79     2      672  8 64 fname=tapelev2_79_the_main_loop_uwind0
(PID.TID 0000.0001) ADREAD:  tid,vid, irec, length, prec(x2)=    41    80     2      672  8 64 fname=tapelev2_80_the_main_loop_uwind1
(PID.TID 0000.0001) ADREAD:  tid,vid, irec, length, prec(x2)=    41    81     2      672  8 64 fname=tapelev2_81_the_main_loop_vwind0
(PID.TID 0000.0001) ADREAD:  tid,vid, irec, length, prec(x2)=    41    82     2      672  8 64 fname=tapelev2_82_the_main_loop_vwind1
(PID.TID 0000.0001) ADREAD:  tid,vid, irec, length, prec(x2)=    41    83     2     6048  8 64 fname=tapelev2_83_the_main_loop_xx_gentim2d
(PID.TID 0000.0001) ADREAD:  tid,vid, irec, length, prec(x2)=    41    84     2     6048  8 64 fname=tapelev2_84_the_main_loop_xx_gentim2d0
(PID.TID 0000.0001) ADREAD:  tid,vid, irec, length, prec(x2)=    41    85     2     6048  8 64 fname=tapelev2_85_the_main_loop_xx_gentim2d1
(PID.TID 0000.0001) ADREAD:  tid,vid, irec, length, prec(x2)=    41    87     2      672  8 64 fname=tapelev2_87_the_main_loop_phihydlow
(PID.TID 0000.0001) ADREAD:  tid,vid, irec, length, prec(x2)=    41    88     2      672  8 64 fname=tapelev2_88_the_main_loop_area
(PID.TID 0000.0001) ADREAD:  tid,vid, irec, length, prec(x2)=    41    89     2      672  8 64 fname=tapelev2_89_the_main_loop_heff
(PID.TID 0000.0001) ADREAD:  tid,vid, irec, length, prec(x2)=    41    90     2      672  8 64 fname=tapelev2_90_the_main_loop_hsnow
(PID.TID 0000.0001) ADREAD:  tid,vid, irec, length, prec(x2)=    41    92     2      672  8 64 fname=tapelev2_92_the_main_loop_uice
(PID.TID 0000.0001) ADREAD:  tid,vid, irec, length, prec(x2)=    41    93     2      672  8 64 fname=tapelev2_93_the_main_loop_vice
(PID.TID 0000.0001) ADREAD:  tid,vid, irec, length, prec(x2)=    41    96     2     4704  8 64 fname=tapelev2_96_the_main_loop_tices
(PID.TID 0000.0001) ADREAD:  tid,vid, irec, length, prec(x2)=    41    97     2      672  8 64 fname=tapelev2_97_the_main_loop_dwatn
(PID.TID 0000.0001) ADREAD:  tid,vid, irec, length, prec(x2)=    41    98     2      672  8 64 fname=tapelev2_98_the_main_loop_stressdivergencex
(PID.TID 0000.0001) ADREAD:  tid,vid, irec, length, prec(x2)=    41    99     2      672  8 64 fname=tapelev2_99_the_main_loop_stressdivergencey
(PID.TID 0000.0001) ADREAD:  tid,vid, irec, length, prec(x2)=    41   100     2      672  8 64 fname=tapelev2_100_the_main_loop_seaice_sigma1
(PID.TID 0000.0001) ADREAD:  tid,vid, irec, length, prec(x2)=    41   101     2      672  8 64 fname=tapelev2_101_the_main_loop_seaice_sigma2
(PID.TID 0000.0001) ADREAD:  tid,vid, irec, length, prec(x2)=    41   102     2      672  8 64 fname=tapelev2_102_the_main_loop_seaice_sigma12
(PID.TID 0000.0001) ADREAD:  tid,vid, irec, length, prec(x2)=    41   103     2      672  8 64 fname=tapelev2_103_the_main_loop_hsalt
(PID.TID 0000.0001)  MDS_READ_FIELD: opening global file: xx_atemp.effective.0000000001.data
(PID.TID 0000.0001) EXF_SET_FLD: processing field "climsss",  file: SSS_monthly.labsea1979
(PID.TID 0000.0001) EXF_SET_FLD:   myIter, count0, count1:         2      1      2
(PID.TID 0000.0001) EXF_SET_FLD:   first, changed, fac:   F   F    0.49726775956284153
(PID.TID 0000.0001) EXF_SET_FLD: processing field "uwind",  file: u10m.labsea1979
(PID.TID 0000.0001) EXF_SET_FLD:   myIter, count0, count1:         2      1      2
(PID.TID 0000.0001) EXF_SET_FLD:   first, changed, fac:   F   F    0.49726775956284153
(PID.TID 0000.0001) EXF_SET_FLD: processing field "vwind",  file: v10m.labsea1979
(PID.TID 0000.0001) EXF_SET_FLD:   myIter, count0, count1:         2      1      2
(PID.TID 0000.0001) EXF_SET_FLD:   first, changed, fac:   F   F    0.49726775956284153
(PID.TID 0000.0001) EXF_SET_FLD: processing field "atemp",  file: tair.labsea1979
(PID.TID 0000.0001) EXF_SET_FLD:   myIter, count0, count1:         2      1      2
(PID.TID 0000.0001) EXF_SET_FLD:   first, changed, fac:   F   F    0.49726775956284153
(PID.TID 0000.0001) EXF_SET_FLD: processing field "aqh",  file: qa.labsea1979
(PID.TID 0000.0001) EXF_SET_FLD:   myIter, count0, count1:         2      1      2
(PID.TID 0000.0001) EXF_SET_FLD:   first, changed, fac:   F   F    0.49726775956284153
(PID.TID 0000.0001) EXF_SET_FLD: processing field "precip",  file: prate.labsea1979
(PID.TID 0000.0001) EXF_SET_FLD:   myIter, count0, count1:         2      1      2
(PID.TID 0000.0001) EXF_SET_FLD:   first, changed, fac:   F   F    0.49726775956284153
(PID.TID 0000.0001) EXF_SET_FLD: processing field "swdown",  file: fsh.labsea1979
(PID.TID 0000.0001) EXF_SET_FLD:   myIter, count0, count1:         2      1      2
(PID.TID 0000.0001) EXF_SET_FLD:   first, changed, fac:   F   F    0.49726775956284153
(PID.TID 0000.0001) EXF_SET_FLD: processing field "lwdown",  file: flo.labsea1979
(PID.TID 0000.0001) EXF_SET_FLD:   myIter, count0, count1:         2      1      2
(PID.TID 0000.0001) EXF_SET_FLD:   first, changed, fac:   F   F    0.49726775956284153
DEBUG_STATS_RL:    cg2d_b (SOLVE_FOR_PRESSURE)  min= -7.51696131718231E+03
DEBUG_STATS_RL:    cg2d_b (SOLVE_FOR_PRESSURE)  max=  2.21291016221046E+03
DEBUG_STATS_RL:    cg2d_b (SOLVE_FOR_PRESSURE) mean=  4.14578001558160E-13
DEBUG_STATS_RL:    cg2d_b (SOLVE_FOR_PRESSURE) S.D.=  9.35355930257332E+02
 cg2d: Sum(rhs),rhsMax =   8.13238365537927E-15  1.20985040186716E+00
DEBUG_STATS_RL:    cg2d_x (SOLVE_FOR_PRESSURE)  min= -1.39137659519015E+00
DEBUG_STATS_RL:    cg2d_x (SOLVE_FOR_PRESSURE)  max=  3.06244143644373E+00
DEBUG_STATS_RL:    cg2d_x (SOLVE_FOR_PRESSURE) mean= -2.04738907200057E-02
DEBUG_STATS_RL:    cg2d_x (SOLVE_FOR_PRESSURE) S.D.=  7.54254787473285E-01
(PID.TID 0000.0001)  MDS_READ_FIELD: opening global file: xx_atemp.effective.0000000001.data
(PID.TID 0000.0001) EXF_SET_FLD: processing field "climsss",  file: SSS_monthly.labsea1979
(PID.TID 0000.0001) EXF_SET_FLD:   myIter, count0, count1:         3      1      2
(PID.TID 0000.0001) EXF_SET_FLD:   first, changed, fac:   F   F    0.49590163934426235
(PID.TID 0000.0001) EXF_SET_FLD: processing field "uwind",  file: u10m.labsea1979
(PID.TID 0000.0001) EXF_SET_FLD:   myIter, count0, count1:         3      1      2
(PID.TID 0000.0001) EXF_SET_FLD:   first, changed, fac:   F   F    0.49590163934426235
(PID.TID 0000.0001) EXF_SET_FLD: processing field "vwind",  file: v10m.labsea1979
(PID.TID 0000.0001) EXF_SET_FLD:   myIter, count0, count1:         3      1      2
(PID.TID 0000.0001) EXF_SET_FLD:   first, changed, fac:   F   F    0.49590163934426235
(PID.TID 0000.0001) EXF_SET_FLD: processing field "atemp",  file: tair.labsea1979
(PID.TID 0000.0001) EXF_SET_FLD:   myIter, count0, count1:         3      1      2
(PID.TID 0000.0001) EXF_SET_FLD:   first, changed, fac:   F   F    0.49590163934426235
(PID.TID 0000.0001) EXF_SET_FLD: processing field "aqh",  file: qa.labsea1979
(PID.TID 0000.0001) EXF_SET_FLD:   myIter, count0, count1:         3      1      2
(PID.TID 0000.0001) EXF_SET_FLD:   first, changed, fac:   F   F    0.49590163934426235
(PID.TID 0000.0001) EXF_SET_FLD: processing field "precip",  file: prate.labsea1979
(PID.TID 0000.0001) EXF_SET_FLD:   myIter, count0, count1:         3      1      2
(PID.TID 0000.0001) EXF_SET_FLD:   first, changed, fac:   F   F    0.49590163934426235
(PID.TID 0000.0001) EXF_SET_FLD: processing field "swdown",  file: fsh.labsea1979
(PID.TID 0000.0001) EXF_SET_FLD:   myIter, count0, count1:         3      1      2
(PID.TID 0000.0001) EXF_SET_FLD:   first, changed, fac:   F   F    0.49590163934426235
(PID.TID 0000.0001) EXF_SET_FLD: processing field "lwdown",  file: flo.labsea1979
(PID.TID 0000.0001) EXF_SET_FLD:   myIter, count0, count1:         3      1      2
(PID.TID 0000.0001) EXF_SET_FLD:   first, changed, fac:   F   F    0.49590163934426235
DEBUG_STATS_RL:    cg2d_b (SOLVE_FOR_PRESSURE)  min= -7.48820843436671E+03
DEBUG_STATS_RL:    cg2d_b (SOLVE_FOR_PRESSURE)  max=  2.19603477106472E+03
DEBUG_STATS_RL:    cg2d_b (SOLVE_FOR_PRESSURE) mean=  2.14489167168116E-13
DEBUG_STATS_RL:    cg2d_b (SOLVE_FOR_PRESSURE) S.D.=  9.20730314173818E+02
 cg2d: Sum(rhs),rhsMax =   5.49560397189452E-15  1.20522264267546E+00
DEBUG_STATS_RL:    cg2d_x (SOLVE_FOR_PRESSURE)  min= -1.31033012419165E+00
DEBUG_STATS_RL:    cg2d_x (SOLVE_FOR_PRESSURE)  max=  3.14089981024926E+00
DEBUG_STATS_RL:    cg2d_x (SOLVE_FOR_PRESSURE) mean= -2.47876044023014E-02
DEBUG_STATS_RL:    cg2d_x (SOLVE_FOR_PRESSURE) S.D.=  7.62604990072166E-01
(PID.TID 0000.0001) S/R ADAUTODIFF_INADMODE_SET: useKPP    =    T
(PID.TID 0000.0001) S/R ADAUTODIFF_INADMODE_SET: useGMRedi =    T
(PID.TID 0000.0001) S/R ADAUTODIFF_INADMODE_SET: useSEAICE =    T
(PID.TID 0000.0001) S/R ADAUTODIFF_INADMODE_SET: useGGL90    =    F
(PID.TID 0000.0001) S/R ADAUTODIFF_INADMODE_SET: useSALT_PLUME    =    F
(PID.TID 0000.0001) S/R ADAUTODIFF_INADMODE_SET: viscFacAdj = 1.00000000000000E+00
(PID.TID 0000.0001) // =======================================================
(PID.TID 0000.0001) // Begin AD_MONITOR dynamic field statistics
(PID.TID 0000.0001) // =======================================================
(PID.TID 0000.0001) %MON ad_time_tsnumber             =                     4
(PID.TID 0000.0001) %MON ad_time_secondsf             =   1.4400000000000E+04
(PID.TID 0000.0001) %MON ad_dynstat_adeta_max         =   1.1854491161861E+06
(PID.TID 0000.0001) %MON ad_dynstat_adeta_min         =  -1.6582355635528E+06
(PID.TID 0000.0001) %MON ad_dynstat_adeta_mean        =  -1.0964152444870E+03
(PID.TID 0000.0001) %MON ad_dynstat_adeta_sd          =   2.2427492345909E+05
(PID.TID 0000.0001) %MON ad_dynstat_adeta_del2        =   4.4798091871462E+04
(PID.TID 0000.0001) %MON ad_dynstat_aduvel_max        =   1.3156386196908E+08
(PID.TID 0000.0001) %MON ad_dynstat_aduvel_min        =  -1.5037278571343E+08
(PID.TID 0000.0001) %MON ad_dynstat_aduvel_mean       =   5.4156403385388E+03
(PID.TID 0000.0001) %MON ad_dynstat_aduvel_sd         =   2.3780100550642E+06
(PID.TID 0000.0001) %MON ad_dynstat_aduvel_del2       =   4.3065193661681E+05
(PID.TID 0000.0001) %MON ad_dynstat_advvel_max        =   1.3646770501151E+08
(PID.TID 0000.0001) %MON ad_dynstat_advvel_min        =  -6.2911517070151E+07
(PID.TID 0000.0001) %MON ad_dynstat_advvel_mean       =  -4.4857887649999E+03
(PID.TID 0000.0001) %MON ad_dynstat_advvel_sd         =   1.7726760190159E+06
(PID.TID 0000.0001) %MON ad_dynstat_advvel_del2       =   3.8000649834336E+05
(PID.TID 0000.0001) %MON ad_dynstat_adwvel_max        =   2.4991924242899E+07
(PID.TID 0000.0001) %MON ad_dynstat_adwvel_min        =  -2.5266458183097E+07
(PID.TID 0000.0001) %MON ad_dynstat_adwvel_mean       =   1.5119833980607E+02
(PID.TID 0000.0001) %MON ad_dynstat_adwvel_sd         =   4.2355528385134E+05
(PID.TID 0000.0001) %MON ad_dynstat_adwvel_del2       =   7.0471725475047E+04
(PID.TID 0000.0001) %MON ad_dynstat_adtheta_max       =   7.6241627198424E+05
(PID.TID 0000.0001) %MON ad_dynstat_adtheta_min       =  -1.2743289436381E+05
(PID.TID 0000.0001) %MON ad_dynstat_adtheta_mean      =   3.3519664038228E+01
(PID.TID 0000.0001) %MON ad_dynstat_adtheta_sd        =   5.8202132058316E+03
(PID.TID 0000.0001) %MON ad_dynstat_adtheta_del2      =   1.4758857912699E+03
(PID.TID 0000.0001) %MON ad_dynstat_adsalt_max        =   3.4051660439544E+04
(PID.TID 0000.0001) %MON ad_dynstat_adsalt_min        =  -2.4024794450471E+04
(PID.TID 0000.0001) %MON ad_dynstat_adsalt_mean       =   1.2597027668585E+00
(PID.TID 0000.0001) %MON ad_dynstat_adsalt_sd         =   4.2979657638547E+03
(PID.TID 0000.0001) %MON ad_dynstat_adsalt_del2       =   1.3581711292481E+02
(PID.TID 0000.0001) %MON ad_dynstat_adsst_max         =   7.6241627198424E+05
(PID.TID 0000.0001) %MON ad_dynstat_adsst_min         =  -1.2743289436381E+05
(PID.TID 0000.0001) %MON ad_dynstat_adsst_mean        =   5.0130151003838E+03
(PID.TID 0000.0001) %MON ad_dynstat_adsst_sd          =   7.0300311750757E+04
(PID.TID 0000.0001) %MON ad_dynstat_adsst_del2        =   1.8299113000827E+04
(PID.TID 0000.0001) %MON ad_dynstat_adsss_max         =   9.3850097691206E+02
(PID.TID 0000.0001) %MON ad_dynstat_adsss_min         =  -8.6618954891601E+02
(PID.TID 0000.0001) %MON ad_dynstat_adsss_mean        =   1.4608241083361E-01
(PID.TID 0000.0001) %MON ad_dynstat_adsss_sd          =   1.3551681510551E+02
(PID.TID 0000.0001) %MON ad_dynstat_adsss_del2        =   3.2444036703058E+01
(PID.TID 0000.0001) // =======================================================
(PID.TID 0000.0001) // End AD_MONITOR dynamic field statistics
(PID.TID 0000.0001) // =======================================================
(PID.TID 0000.0001) // =======================================================
(PID.TID 0000.0001) // Begin AD_MONITOR SEAICE statistics
(PID.TID 0000.0001) // =======================================================
(PID.TID 0000.0001) %MON ad_seaice_tsnumber           =                     4
(PID.TID 0000.0001) %MON ad_seaice_time_sec           =   1.4400000000000E+04
(PID.TID 0000.0001) %MON ad_seaice_aduice_max         =   4.3091675094751E+09
(PID.TID 0000.0001) %MON ad_seaice_aduice_min         =  -2.3442026007633E+09
(PID.TID 0000.0001) %MON ad_seaice_aduice_mean        =  -6.0586906648340E+05
(PID.TID 0000.0001) %MON ad_seaice_aduice_sd          =   5.6550018280404E+08
(PID.TID 0000.0001) %MON ad_seaice_aduice_del2        =   1.8876910680294E+08
(PID.TID 0000.0001) %MON ad_seaice_advice_max         =   4.1156584942817E+09
(PID.TID 0000.0001) %MON ad_seaice_advice_min         =  -4.5978744375870E+09
(PID.TID 0000.0001) %MON ad_seaice_advice_mean        =  -6.8523270019225E+04
(PID.TID 0000.0001) %MON ad_seaice_advice_sd          =   7.4418906515777E+08
(PID.TID 0000.0001) %MON ad_seaice_advice_del2        =   2.6189349177762E+08
(PID.TID 0000.0001) %MON ad_seaice_adarea_max         =   3.8959582162258E+08
(PID.TID 0000.0001) %MON ad_seaice_adarea_min         =  -4.0328704880656E+08
(PID.TID 0000.0001) %MON ad_seaice_adarea_mean        =  -9.1017518488989E+05
(PID.TID 0000.0001) %MON ad_seaice_adarea_sd          =   6.4704934096803E+07
(PID.TID 0000.0001) %MON ad_seaice_adarea_del2        =   1.4492822865187E+07
(PID.TID 0000.0001) %MON ad_seaice_adheff_max         =   1.5193907026049E+08
(PID.TID 0000.0001) %MON ad_seaice_adheff_min         =  -1.8794861324345E+08
(PID.TID 0000.0001) %MON ad_seaice_adheff_mean        =  -1.6167946535940E+06
(PID.TID 0000.0001) %MON ad_seaice_adheff_sd          =   3.1518377660955E+07
(PID.TID 0000.0001) %MON ad_seaice_adheff_del2        =   7.1896196813494E+06
(PID.TID 0000.0001) %MON ad_seaice_adhsnow_max        =   4.1954380526482E+05
(PID.TID 0000.0001) %MON ad_seaice_adhsnow_min        =  -2.5542336657259E+06
(PID.TID 0000.0001) %MON ad_seaice_adhsnow_mean       =  -1.6803053642382E+04
(PID.TID 0000.0001) %MON ad_seaice_adhsnow_sd         =   2.3540675502921E+05
(PID.TID 0000.0001) %MON ad_seaice_adhsnow_del2       =   6.1255662102019E+04
(PID.TID 0000.0001) %MON ad_seaice_adhsalt_max        =   3.9709171958839E-03
(PID.TID 0000.0001) %MON ad_seaice_adhsalt_min        =  -8.3913731471390E-04
(PID.TID 0000.0001) %MON ad_seaice_adhsalt_mean       =   7.9183128208283E-06
(PID.TID 0000.0001) %MON ad_seaice_adhsalt_sd         =   4.6671226176094E-04
(PID.TID 0000.0001) %MON ad_seaice_adhsalt_del2       =   9.1217317670544E-05
(PID.TID 0000.0001) // =======================================================
(PID.TID 0000.0001) // End AD_MONITOR SEAICE statistics
(PID.TID 0000.0001) // =======================================================
(PID.TID 0000.0001)  MDS_WRITE_FIELD: it,rec,kS,kL,kH=       4     1   1   1   1 file=ADJetan.0000000004
 Calling cg2d from S/R CG2D_MAD
 cg2d: Sum(rhs),rhsMax =   7.21000797449965E-17  7.82758848552689E+02
(PID.TID 0000.0001)       CG2D_MAD cg2d_init_res =   1.68661095134124E+00
(PID.TID 0000.0001)      CG2D_MAD: cg2d_iters(min,last) =      -1      46
(PID.TID 0000.0001)      CG2D_MAD: cg2d_last_res =   6.37530070523797E-14
(PID.TID 0000.0001)  MDS_WRITE_FIELD: it,rec,kS,kL,kH=       3     1   1   1   1 file=ADJtaux.0000000003
(PID.TID 0000.0001)  MDS_WRITE_FIELD: it,rec,kS,kL,kH=       3     1   1   1   1 file=ADJtauy.0000000003
(PID.TID 0000.0001)  MDS_WRITE_FIELD: it,rec,kS,kL,kH=       3     1   1   1   1 file=ADJqnet.0000000003
(PID.TID 0000.0001)  MDS_WRITE_FIELD: it,rec,kS,kL,kH=       3     1   1   1   1 file=ADJempr.0000000003
(PID.TID 0000.0001)  MDS_WRITE_FIELD: it,rec,kS,kL,kH=       3     1   1   1   1 file=ADJqsw.0000000003
(PID.TID 0000.0001) // =======================================================
(PID.TID 0000.0001) // Begin AD_MONITOR EXF statistics for iwhen =  3
(PID.TID 0000.0001) // =======================================================
(PID.TID 0000.0001) %MON ad_exf_tsnumber              =                     3
(PID.TID 0000.0001) %MON ad_exf_time_sec              =   1.0800000000000E+04
(PID.TID 0000.0001) %MON ad_exf_adfu_max              =   4.4239047199053E+07
(PID.TID 0000.0001) %MON ad_exf_adfu_min              =  -5.2938193300857E+07
(PID.TID 0000.0001) %MON ad_exf_adfu_mean             =   2.8992464780270E+05
(PID.TID 0000.0001) %MON ad_exf_adfu_sd               =   8.5470218323210E+06
(PID.TID 0000.0001) %MON ad_exf_adfu_del2             =   1.4773527188117E+06
(PID.TID 0000.0001) %MON ad_exf_adfv_max              =   5.6723945892457E+07
(PID.TID 0000.0001) %MON ad_exf_adfv_min              =  -2.5099263507755E+07
(PID.TID 0000.0001) %MON ad_exf_adfv_mean             =  -6.5522991447133E+04
(PID.TID 0000.0001) %MON ad_exf_adfv_sd               =   7.8054734574755E+06
(PID.TID 0000.0001) %MON ad_exf_adfv_del2             =   1.4449101453453E+06
(PID.TID 0000.0001) %MON ad_exf_adqnet_max            =   1.1200439956851E+01
(PID.TID 0000.0001) %MON ad_exf_adqnet_min            =  -6.7012031475872E+01
(PID.TID 0000.0001) %MON ad_exf_adqnet_mean           =  -4.4005122983496E-01
(PID.TID 0000.0001) %MON ad_exf_adqnet_sd             =   6.1790309044744E+00
(PID.TID 0000.0001) %MON ad_exf_adqnet_del2           =   1.6087031611162E+00
(PID.TID 0000.0001) %MON ad_exf_adempmr_max           =   2.4494089510859E+05
(PID.TID 0000.0001) %MON ad_exf_adempmr_min           =  -1.6627909025521E+04
(PID.TID 0000.0001) %MON ad_exf_adempmr_mean          =   2.6640320449334E+03
(PID.TID 0000.0001) %MON ad_exf_adempmr_sd            =   2.3024888608412E+04
(PID.TID 0000.0001) %MON ad_exf_adempmr_del2          =   5.9624575000544E+03
(PID.TID 0000.0001) %MON ad_exf_adqsw_max             =   1.5443013958959E+01
(PID.TID 0000.0001) %MON ad_exf_adqsw_min             =  -2.5757664413820E+00
(PID.TID 0000.0001) %MON ad_exf_adqsw_mean            =   1.0142143186315E-01
(PID.TID 0000.0001) %MON ad_exf_adqsw_sd              =   1.4239262412840E+00
(PID.TID 0000.0001) %MON ad_exf_adqsw_del2            =   3.7064075220717E-01
(PID.TID 0000.0001) // =======================================================
(PID.TID 0000.0001) // End AD_MONITOR EXF statistics for iwhen =  3
(PID.TID 0000.0001) // =======================================================
(PID.TID 0000.0001)  MDS_WRITE_FIELD: it,rec,kS,kL,kH=       3     1  23   1  23 file=ADJtheta.0000000003
(PID.TID 0000.0001)  MDS_WRITE_FIELD: it,rec,kS,kL,kH=       3     1  23   1  23 file=ADJsalt.0000000003
(PID.TID 0000.0001)  MDS_WRITE_FIELD: it,rec,kS,kL,kH=       3     1  23   1  23 file=ADJwvel.0000000003
(PID.TID 0000.0001)  MDS_WRITE_FIELD: it,rec,kS,kL,kH=       3     1  23   1  23 file=ADJuvel.0000000003
(PID.TID 0000.0001)  MDS_WRITE_FIELD: it,rec,kS,kL,kH=       3     1  23   1  23 file=ADJvvel.0000000003
(PID.TID 0000.0001)  MDS_WRITE_FIELD: it,rec,kS,kL,kH=       3     1   1   1   1 file=ADJarea.0000000003
(PID.TID 0000.0001)  MDS_WRITE_FIELD: it,rec,kS,kL,kH=       3     1   1   1   1 file=ADJheff.0000000003
(PID.TID 0000.0001)  MDS_WRITE_FIELD: it,rec,kS,kL,kH=       3     1   1   1   1 file=ADJhsnow.0000000003
(PID.TID 0000.0001)  MDS_WRITE_FIELD: it,rec,kS,kL,kH=       3     1   1   1   1 file=ADJuice.0000000003
(PID.TID 0000.0001)  MDS_WRITE_FIELD: it,rec,kS,kL,kH=       3     1   1   1   1 file=ADJvice.0000000003
(PID.TID 0000.0001)  MDS_WRITE_FIELD: it,rec,kS,kL,kH=       3     1   1   1   1 file=ADJustress.0000000003
(PID.TID 0000.0001)  MDS_WRITE_FIELD: it,rec,kS,kL,kH=       3     1   1   1   1 file=ADJvstress.0000000003
(PID.TID 0000.0001)  MDS_WRITE_FIELD: it,rec,kS,kL,kH=       3     1   1   1   1 file=ADJhflux.0000000003
(PID.TID 0000.0001)  MDS_WRITE_FIELD: it,rec,kS,kL,kH=       3     1   1   1   1 file=ADJsflux.0000000003
(PID.TID 0000.0001) // =======================================================
(PID.TID 0000.0001) // Begin AD_MONITOR EXF statistics for iwhen =  1
(PID.TID 0000.0001) // =======================================================
(PID.TID 0000.0001) %MON ad_exf_tsnumber              =                     3
(PID.TID 0000.0001) %MON ad_exf_time_sec              =   1.0800000000000E+04
(PID.TID 0000.0001) %MON ad_exf_adustress_max         =   2.3547461332228E+06
(PID.TID 0000.0001) %MON ad_exf_adustress_min         =  -4.6063072466606E+06
(PID.TID 0000.0001) %MON ad_exf_adustress_mean        =  -9.3984593744055E+04
(PID.TID 0000.0001) %MON ad_exf_adustress_sd          =   7.8434323121917E+05
(PID.TID 0000.0001) %MON ad_exf_adustress_del2        =   1.3649893285741E+05
(PID.TID 0000.0001) %MON ad_exf_advstress_max         =   2.1309276940645E+07
(PID.TID 0000.0001) %MON ad_exf_advstress_min         =  -3.1495828670081E+06
(PID.TID 0000.0001) %MON ad_exf_advstress_mean        =   2.8258078145616E+05
(PID.TID 0000.0001) %MON ad_exf_advstress_sd          =   2.3119786291835E+06
(PID.TID 0000.0001) %MON ad_exf_advstress_del2        =   4.7351111998904E+05
(PID.TID 0000.0001) %MON ad_exf_adhflux_max           =   7.9624232776492E-01
(PID.TID 0000.0001) %MON ad_exf_adhflux_min           =  -7.3813828631734E+00
(PID.TID 0000.0001) %MON ad_exf_adhflux_mean          =  -1.2075378035824E-01
(PID.TID 0000.0001) %MON ad_exf_adhflux_sd            =   8.8290410942353E-01
(PID.TID 0000.0001) %MON ad_exf_adhflux_del2          =   1.5778891269166E-01
(PID.TID 0000.0001) %MON ad_exf_adsflux_max           =   0.0000000000000E+00
(PID.TID 0000.0001) %MON ad_exf_adsflux_min           =   0.0000000000000E+00
(PID.TID 0000.0001) %MON ad_exf_adsflux_mean          =   0.0000000000000E+00
(PID.TID 0000.0001) %MON ad_exf_adsflux_sd            =   0.0000000000000E+00
(PID.TID 0000.0001) %MON ad_exf_adsflux_del2          =   0.0000000000000E+00
(PID.TID 0000.0001) %MON ad_exf_adswflux_max          =   7.9602218550470E-01
(PID.TID 0000.0001) %MON ad_exf_adswflux_min          =  -7.3795313009946E+00
(PID.TID 0000.0001) %MON ad_exf_adswflux_mean         =  -1.2097728212895E-01
(PID.TID 0000.0001) %MON ad_exf_adswflux_sd           =   8.8268565491631E-01
(PID.TID 0000.0001) %MON ad_exf_adswflux_del2         =   1.5775425518515E-01
(PID.TID 0000.0001) %MON ad_exf_adwspeed_max          =   5.3664014911659E+03
(PID.TID 0000.0001) %MON ad_exf_adwspeed_min          =  -3.0494452752938E+03
(PID.TID 0000.0001) %MON ad_exf_adwspeed_mean         =   6.3256653510781E+01
(PID.TID 0000.0001) %MON ad_exf_adwspeed_sd           =   7.0124269857468E+02
(PID.TID 0000.0001) %MON ad_exf_adwspeed_del2         =   1.5711334796769E+02
(PID.TID 0000.0001) // =======================================================
(PID.TID 0000.0001) // End AD_MONITOR EXF statistics for iwhen =  1
(PID.TID 0000.0001) // =======================================================
(PID.TID 0000.0001)  MDS_WRITE_FIELD: it,rec,kS,kL,kH=       3     1   1   1   1 file=ADJatemp.0000000003
(PID.TID 0000.0001)  MDS_WRITE_FIELD: it,rec,kS,kL,kH=       3     1   1   1   1 file=ADJaqh.0000000003
(PID.TID 0000.0001)  MDS_WRITE_FIELD: it,rec,kS,kL,kH=       3     1   1   1   1 file=ADJprecip.0000000003
(PID.TID 0000.0001)  MDS_WRITE_FIELD: it,rec,kS,kL,kH=       3     1   1   1   1 file=ADJrunoff.0000000003
(PID.TID 0000.0001)  MDS_WRITE_FIELD: it,rec,kS,kL,kH=       3     1   1   1   1 file=ADJuwind.0000000003
(PID.TID 0000.0001)  MDS_WRITE_FIELD: it,rec,kS,kL,kH=       3     1   1   1   1 file=ADJvwind.0000000003
(PID.TID 0000.0001)  MDS_WRITE_FIELD: it,rec,kS,kL,kH=       3     1   1   1   1 file=ADJswdown.0000000003
(PID.TID 0000.0001)  MDS_WRITE_FIELD: it,rec,kS,kL,kH=       3     1   1   1   1 file=ADJlwdown.0000000003
(PID.TID 0000.0001)  MDS_WRITE_FIELD: it,rec,kS,kL,kH=       3     1   1   1   1 file=ADJclimsst.0000000003
(PID.TID 0000.0001)  MDS_WRITE_FIELD: it,rec,kS,kL,kH=       3     1   1   1   1 file=ADJclimsss.0000000003
(PID.TID 0000.0001) // =======================================================
(PID.TID 0000.0001) // Begin AD_MONITOR EXF statistics for iwhen =  2
(PID.TID 0000.0001) // =======================================================
(PID.TID 0000.0001) %MON ad_exf_tsnumber              =                     3
(PID.TID 0000.0001) %MON ad_exf_time_sec              =   1.0800000000000E+04
(PID.TID 0000.0001) %MON ad_exf_aduwind_max           =   2.9759377845638E+07
(PID.TID 0000.0001) %MON ad_exf_aduwind_min           =  -3.0998536591249E+07
(PID.TID 0000.0001) %MON ad_exf_aduwind_mean          =  -2.5532005743932E+05
(PID.TID 0000.0001) %MON ad_exf_aduwind_sd            =   6.8811415952570E+06
(PID.TID 0000.0001) %MON ad_exf_aduwind_del2          =   1.4283412414673E+06
(PID.TID 0000.0001) %MON ad_exf_advwind_max           =   4.4425110466886E+07
(PID.TID 0000.0001) %MON ad_exf_advwind_min           =  -5.2012724398158E+07
(PID.TID 0000.0001) %MON ad_exf_advwind_mean          =  -5.0341479573131E+05
(PID.TID 0000.0001) %MON ad_exf_advwind_sd            =   7.7311346550885E+06
(PID.TID 0000.0001) %MON ad_exf_advwind_del2          =   1.3603888582460E+06
(PID.TID 0000.0001) %MON ad_exf_adatemp_max           =   1.4078608823585E+04
(PID.TID 0000.0001) %MON ad_exf_adatemp_min           =  -4.3146334635799E+03
(PID.TID 0000.0001) %MON ad_exf_adatemp_mean          =   4.2327454004044E+02
(PID.TID 0000.0001) %MON ad_exf_adatemp_sd            =   2.1995994963170E+03
(PID.TID 0000.0001) %MON ad_exf_adatemp_del2          =   3.3298507776616E+02
(PID.TID 0000.0001) %MON ad_exf_adaqh_max             =   1.2284859175071E+07
(PID.TID 0000.0001) %MON ad_exf_adaqh_min             =  -1.1287949747237E+07
(PID.TID 0000.0001) %MON ad_exf_adaqh_mean            =   2.4580724791705E+05
(PID.TID 0000.0001) %MON ad_exf_adaqh_sd              =   2.5940934593317E+06
(PID.TID 0000.0001) %MON ad_exf_adaqh_del2            =   5.9237097162652E+05
(PID.TID 0000.0001) %MON ad_exf_adprecip_max          =   5.3299446769862E+11
(PID.TID 0000.0001) %MON ad_exf_adprecip_min          =  -6.5891074377018E+11
(PID.TID 0000.0001) %MON ad_exf_adprecip_mean         =  -7.8396783183817E+09
(PID.TID 0000.0001) %MON ad_exf_adprecip_sd           =   1.0777867723135E+11
(PID.TID 0000.0001) %MON ad_exf_adprecip_del2         =   2.3543445213196E+10
(PID.TID 0000.0001) %MON ad_exf_adlwdown_max          =   5.8769873595797E+02
(PID.TID 0000.0001) %MON ad_exf_adlwdown_min          =  -4.4380231784597E+02
(PID.TID 0000.0001) %MON ad_exf_adlwdown_mean         =   6.6833998665115E+00
(PID.TID 0000.0001) %MON ad_exf_adlwdown_sd           =   9.4759473407177E+01
(PID.TID 0000.0001) %MON ad_exf_adlwdown_del2         =   2.1840195861054E+01
(PID.TID 0000.0001) %MON ad_exf_adswdown_max          =   1.5303939045126E+02
(PID.TID 0000.0001) %MON ad_exf_adswdown_min          =  -1.1606411121718E+02
(PID.TID 0000.0001) %MON ad_exf_adswdown_mean         =   1.7757961049944E+00
(PID.TID 0000.0001) %MON ad_exf_adswdown_sd           =   2.3992841154301E+01
(PID.TID 0000.0001) %MON ad_exf_adswdown_del2         =   5.5296270526945E+00
(PID.TID 0000.0001) %MON ad_exf_adrunoff_max          =   1.6730457997834E+07
(PID.TID 0000.0001) %MON ad_exf_adrunoff_min          =  -2.4532161095955E+08
(PID.TID 0000.0001) %MON ad_exf_adrunoff_mean         =  -2.6200193010636E+06
(PID.TID 0000.0001) %MON ad_exf_adrunoff_sd           =   2.3065932258623E+07
(PID.TID 0000.0001) %MON ad_exf_adrunoff_del2         =   5.9701051437080E+06
(PID.TID 0000.0001) // =======================================================
(PID.TID 0000.0001) // End AD_MONITOR EXF statistics for iwhen =  2
(PID.TID 0000.0001) // =======================================================
(PID.TID 0000.0001)  MDS_READ_FIELD: opening global file: adxx_atemp.effective.0000000001.data
(PID.TID 0000.0001)  MDS_WRITE_FIELD: it,rec,kS,kL,kH=       1    -5  23   1   1 file=adxx_atemp.effective.0000000001
(PID.TID 0000.0001) S/R ADAUTODIFF_INADMODE_UNSET: useKPP    =    T
(PID.TID 0000.0001) S/R ADAUTODIFF_INADMODE_UNSET: useGMRedi =    T
(PID.TID 0000.0001) S/R ADAUTODIFF_INADMODE_UNSET: useSEAICE =    T
(PID.TID 0000.0001) S/R ADAUTODIFF_INADMODE_UNSET: useGGL90    =    F
(PID.TID 0000.0001) S/R ADAUTODIFF_INADMODE_UNSET: useSALT_PLUME    =    F
(PID.TID 0000.0001) S/R ADAUTODIFF_INADMODE_UNSET: viscFacAdj = 1.00000000000000E+00
(PID.TID 0000.0001)  MDS_READ_FIELD: opening global file: adm_sst_step.0000000001.data
(PID.TID 0000.0001)  MDS_WRITE_FIELD: it,rec,kS,kL,kH=       1    -4  23   1   1 file=adm_sst_step.0000000001
(PID.TID 0000.0001) S/R ADAUTODIFF_INADMODE_SET: useKPP    =    T
(PID.TID 0000.0001) S/R ADAUTODIFF_INADMODE_SET: useGMRedi =    T
(PID.TID 0000.0001) S/R ADAUTODIFF_INADMODE_SET: useSEAICE =    T
(PID.TID 0000.0001) S/R ADAUTODIFF_INADMODE_SET: useGGL90    =    F
(PID.TID 0000.0001) S/R ADAUTODIFF_INADMODE_SET: useSALT_PLUME    =    F
(PID.TID 0000.0001) S/R ADAUTODIFF_INADMODE_SET: viscFacAdj = 1.00000000000000E+00
(PID.TID 0000.0001) // =======================================================
(PID.TID 0000.0001) // Begin AD_MONITOR dynamic field statistics
(PID.TID 0000.0001) // =======================================================
(PID.TID 0000.0001) %MON ad_time_tsnumber             =                     3
(PID.TID 0000.0001) %MON ad_time_secondsf             =   1.0800000000000E+04
(PID.TID 0000.0001) %MON ad_dynstat_adeta_max         =   6.3329319383008E+07
(PID.TID 0000.0001) %MON ad_dynstat_adeta_min         =  -2.8749147066318E+07
(PID.TID 0000.0001) %MON ad_dynstat_adeta_mean        =  -2.7828438672158E+04
(PID.TID 0000.0001) %MON ad_dynstat_adeta_sd          =   7.2276194238975E+06
(PID.TID 0000.0001) %MON ad_dynstat_adeta_del2        =   1.8663628793395E+06
(PID.TID 0000.0001) %MON ad_dynstat_aduvel_max        =   2.3418187604038E+09
(PID.TID 0000.0001) %MON ad_dynstat_aduvel_min        =  -1.8631199200655E+09
(PID.TID 0000.0001) %MON ad_dynstat_aduvel_mean       =  -4.6533602258637E+05
(PID.TID 0000.0001) %MON ad_dynstat_aduvel_sd         =   3.0615011532993E+07
(PID.TID 0000.0001) %MON ad_dynstat_aduvel_del2       =   7.8251845570940E+06
(PID.TID 0000.0001) %MON ad_dynstat_advvel_max        =   3.2458602605231E+09
(PID.TID 0000.0001) %MON ad_dynstat_advvel_min        =  -2.3416156558560E+09
(PID.TID 0000.0001) %MON ad_dynstat_advvel_mean       =  -4.9377641515229E+05
(PID.TID 0000.0001) %MON ad_dynstat_advvel_sd         =   4.0213150715608E+07
(PID.TID 0000.0001) %MON ad_dynstat_advvel_del2       =   9.8765942670003E+06
(PID.TID 0000.0001) %MON ad_dynstat_adwvel_max        =   3.7490317739871E+09
(PID.TID 0000.0001) %MON ad_dynstat_adwvel_min        =  -2.8676189271387E+09
(PID.TID 0000.0001) %MON ad_dynstat_adwvel_mean       =  -5.5220790376691E+04
(PID.TID 0000.0001) %MON ad_dynstat_adwvel_sd         =   5.2749800312734E+07
(PID.TID 0000.0001) %MON ad_dynstat_adwvel_del2       =   1.0226573689298E+07
(PID.TID 0000.0001) %MON ad_dynstat_adtheta_max       =   1.7970697053528E+07
(PID.TID 0000.0001) %MON ad_dynstat_adtheta_min       =  -1.4544582033969E+07
(PID.TID 0000.0001) %MON ad_dynstat_adtheta_mean      =   1.9441176487219E+03
(PID.TID 0000.0001) %MON ad_dynstat_adtheta_sd        =   3.1298475911335E+05
(PID.TID 0000.0001) %MON ad_dynstat_adtheta_del2      =   5.6248320950659E+04
(PID.TID 0000.0001) %MON ad_dynstat_adsalt_max        =   6.9267934837452E+06
(PID.TID 0000.0001) %MON ad_dynstat_adsalt_min        =  -6.4649623804721E+06
(PID.TID 0000.0001) %MON ad_dynstat_adsalt_mean       =  -5.9275282967553E+03
(PID.TID 0000.0001) %MON ad_dynstat_adsalt_sd         =   1.1382033363950E+06
(PID.TID 0000.0001) %MON ad_dynstat_adsalt_del2       =   4.7874692168034E+04
(PID.TID 0000.0001) %MON ad_dynstat_adsst_max         =   1.7970697053528E+07
(PID.TID 0000.0001) %MON ad_dynstat_adsst_min         =  -1.4544582033969E+07
(PID.TID 0000.0001) %MON ad_dynstat_adsst_mean        =   1.5366325349891E+05
(PID.TID 0000.0001) %MON ad_dynstat_adsst_sd          =   3.0226123092405E+06
(PID.TID 0000.0001) %MON ad_dynstat_adsst_del2        =   6.9106795486116E+05
(PID.TID 0000.0001) %MON ad_dynstat_adsss_max         =   1.6684449705138E+05
(PID.TID 0000.0001) %MON ad_dynstat_adsss_min         =  -1.7774185904128E+05
(PID.TID 0000.0001) %MON ad_dynstat_adsss_mean        =  -1.4969192420548E+02
(PID.TID 0000.0001) %MON ad_dynstat_adsss_sd          =   2.9775807832894E+04
(PID.TID 0000.0001) %MON ad_dynstat_adsss_del2        =   7.2123809077067E+03
(PID.TID 0000.0001) // =======================================================
(PID.TID 0000.0001) // End AD_MONITOR dynamic field statistics
(PID.TID 0000.0001) // =======================================================
(PID.TID 0000.0001) // =======================================================
(PID.TID 0000.0001) // Begin AD_MONITOR SEAICE statistics
(PID.TID 0000.0001) // =======================================================
(PID.TID 0000.0001) %MON ad_seaice_tsnumber           =                     3
(PID.TID 0000.0001) %MON ad_seaice_time_sec           =   1.0800000000000E+04
(PID.TID 0000.0001) %MON ad_seaice_aduice_max         =   1.8457112914043E+11
(PID.TID 0000.0001) %MON ad_seaice_aduice_min         =  -1.9032296431643E+11
(PID.TID 0000.0001) %MON ad_seaice_aduice_mean        =  -7.3991050594890E+06
(PID.TID 0000.0001) %MON ad_seaice_aduice_sd          =   2.6229567560474E+10
(PID.TID 0000.0001) %MON ad_seaice_aduice_del2        =   8.3247903221869E+09
(PID.TID 0000.0001) %MON ad_seaice_advice_max         =   1.5002053372442E+11
(PID.TID 0000.0001) %MON ad_seaice_advice_min         =  -1.5339592276950E+11
(PID.TID 0000.0001) %MON ad_seaice_advice_mean        =   1.4271263438710E+08
(PID.TID 0000.0001) %MON ad_seaice_advice_sd          =   2.1988314293519E+10
(PID.TID 0000.0001) %MON ad_seaice_advice_del2        =   7.0643118759036E+09
(PID.TID 0000.0001) %MON ad_seaice_adarea_max         =   3.9932720551675E+09
(PID.TID 0000.0001) %MON ad_seaice_adarea_min         =  -1.0046600138446E+10
(PID.TID 0000.0001) %MON ad_seaice_adarea_mean        =  -9.3947112615650E+07
(PID.TID 0000.0001) %MON ad_seaice_adarea_sd          =   1.1489112854416E+09
(PID.TID 0000.0001) %MON ad_seaice_adarea_del2        =   2.1684720435249E+08
(PID.TID 0000.0001) %MON ad_seaice_adheff_max         =   2.1192180135816E+09
(PID.TID 0000.0001) %MON ad_seaice_adheff_min         =  -6.3211754438002E+09
(PID.TID 0000.0001) %MON ad_seaice_adheff_mean        =  -5.8246603855470E+07
(PID.TID 0000.0001) %MON ad_seaice_adheff_sd          =   6.6472554969750E+08
(PID.TID 0000.0001) %MON ad_seaice_adheff_del2        =   1.4363329262566E+08
(PID.TID 0000.0001) %MON ad_seaice_adhsnow_max        =   4.8466842328712E+07
(PID.TID 0000.0001) %MON ad_seaice_adhsnow_min        =  -6.0090644971743E+07
(PID.TID 0000.0001) %MON ad_seaice_adhsnow_mean       =  -5.1064151891290E+05
(PID.TID 0000.0001) %MON ad_seaice_adhsnow_sd         =   1.0094261350249E+07
(PID.TID 0000.0001) %MON ad_seaice_adhsnow_del2       =   2.3084049703745E+06
(PID.TID 0000.0001) %MON ad_seaice_adhsalt_max        =   1.9439753580047E+00
(PID.TID 0000.0001) %MON ad_seaice_adhsalt_min        =  -1.3196753194858E-01
(PID.TID 0000.0001) %MON ad_seaice_adhsalt_mean       =   2.0830792549968E-02
(PID.TID 0000.0001) %MON ad_seaice_adhsalt_sd         =   1.8231108955072E-01
(PID.TID 0000.0001) %MON ad_seaice_adhsalt_del2       =   4.7324575313539E-02
(PID.TID 0000.0001) // =======================================================
(PID.TID 0000.0001) // End AD_MONITOR SEAICE statistics
(PID.TID 0000.0001) // =======================================================
(PID.TID 0000.0001)  MDS_WRITE_FIELD: it,rec,kS,kL,kH=       3     1   1   1   1 file=ADJetan.0000000003
 Calling cg2d from S/R CG2D_MAD
 cg2d: Sum(rhs),rhsMax =   2.11065257983603E-17  2.34856177693690E+04
(PID.TID 0000.0001)       CG2D_MAD cg2d_init_res =   1.20451718079692E+00
(PID.TID 0000.0001)      CG2D_MAD: cg2d_iters(min,last) =      -1      45
(PID.TID 0000.0001)      CG2D_MAD: cg2d_last_res =   8.40295144682528E-14
(PID.TID 0000.0001)  MDS_WRITE_FIELD: it,rec,kS,kL,kH=       2     1   1   1   1 file=ADJtaux.0000000002
(PID.TID 0000.0001)  MDS_WRITE_FIELD: it,rec,kS,kL,kH=       2     1   1   1   1 file=ADJtauy.0000000002
(PID.TID 0000.0001)  MDS_WRITE_FIELD: it,rec,kS,kL,kH=       2     1   1   1   1 file=ADJqnet.0000000002
(PID.TID 0000.0001)  MDS_WRITE_FIELD: it,rec,kS,kL,kH=       2     1   1   1   1 file=ADJempr.0000000002
(PID.TID 0000.0001)  MDS_WRITE_FIELD: it,rec,kS,kL,kH=       2     1   1   1   1 file=ADJqsw.0000000002
(PID.TID 0000.0001)  MDS_WRITE_FIELD: it,rec,kS,kL,kH=       2     1  23   1  23 file=ADJtheta.0000000002
(PID.TID 0000.0001)  MDS_WRITE_FIELD: it,rec,kS,kL,kH=       2     1  23   1  23 file=ADJsalt.0000000002
(PID.TID 0000.0001)  MDS_WRITE_FIELD: it,rec,kS,kL,kH=       2     1  23   1  23 file=ADJwvel.0000000002
(PID.TID 0000.0001)  MDS_WRITE_FIELD: it,rec,kS,kL,kH=       2     1  23   1  23 file=ADJuvel.0000000002
(PID.TID 0000.0001)  MDS_WRITE_FIELD: it,rec,kS,kL,kH=       2     1  23   1  23 file=ADJvvel.0000000002
(PID.TID 0000.0001)  MDS_WRITE_FIELD: it,rec,kS,kL,kH=       2     1   1   1   1 file=ADJarea.0000000002
(PID.TID 0000.0001)  MDS_WRITE_FIELD: it,rec,kS,kL,kH=       2     1   1   1   1 file=ADJheff.0000000002
(PID.TID 0000.0001)  MDS_WRITE_FIELD: it,rec,kS,kL,kH=       2     1   1   1   1 file=ADJhsnow.0000000002
(PID.TID 0000.0001)  MDS_WRITE_FIELD: it,rec,kS,kL,kH=       2     1   1   1   1 file=ADJuice.0000000002
(PID.TID 0000.0001)  MDS_WRITE_FIELD: it,rec,kS,kL,kH=       2     1   1   1   1 file=ADJvice.0000000002
(PID.TID 0000.0001)  MDS_WRITE_FIELD: it,rec,kS,kL,kH=       2     1   1   1   1 file=ADJustress.0000000002
(PID.TID 0000.0001)  MDS_WRITE_FIELD: it,rec,kS,kL,kH=       2     1   1   1   1 file=ADJvstress.0000000002
(PID.TID 0000.0001)  MDS_WRITE_FIELD: it,rec,kS,kL,kH=       2     1   1   1   1 file=ADJhflux.0000000002
(PID.TID 0000.0001)  MDS_WRITE_FIELD: it,rec,kS,kL,kH=       2     1   1   1   1 file=ADJsflux.0000000002
(PID.TID 0000.0001)  MDS_WRITE_FIELD: it,rec,kS,kL,kH=       2     1   1   1   1 file=ADJatemp.0000000002
(PID.TID 0000.0001)  MDS_WRITE_FIELD: it,rec,kS,kL,kH=       2     1   1   1   1 file=ADJaqh.0000000002
(PID.TID 0000.0001)  MDS_WRITE_FIELD: it,rec,kS,kL,kH=       2     1   1   1   1 file=ADJprecip.0000000002
(PID.TID 0000.0001)  MDS_WRITE_FIELD: it,rec,kS,kL,kH=       2     1   1   1   1 file=ADJrunoff.0000000002
(PID.TID 0000.0001)  MDS_WRITE_FIELD: it,rec,kS,kL,kH=       2     1   1   1   1 file=ADJuwind.0000000002
(PID.TID 0000.0001)  MDS_WRITE_FIELD: it,rec,kS,kL,kH=       2     1   1   1   1 file=ADJvwind.0000000002
(PID.TID 0000.0001)  MDS_WRITE_FIELD: it,rec,kS,kL,kH=       2     1   1   1   1 file=ADJswdown.0000000002
(PID.TID 0000.0001)  MDS_WRITE_FIELD: it,rec,kS,kL,kH=       2     1   1   1   1 file=ADJlwdown.0000000002
(PID.TID 0000.0001)  MDS_WRITE_FIELD: it,rec,kS,kL,kH=       2     1   1   1   1 file=ADJclimsst.0000000002
(PID.TID 0000.0001)  MDS_WRITE_FIELD: it,rec,kS,kL,kH=       2     1   1   1   1 file=ADJclimsss.0000000002
(PID.TID 0000.0001)  MDS_READ_FIELD: opening global file: adxx_atemp.effective.0000000001.data
(PID.TID 0000.0001)  MDS_WRITE_FIELD: it,rec,kS,kL,kH=       1    -4  23   1   1 file=adxx_atemp.effective.0000000001
(PID.TID 0000.0001) S/R ADAUTODIFF_INADMODE_UNSET: useKPP    =    T
(PID.TID 0000.0001) S/R ADAUTODIFF_INADMODE_UNSET: useGMRedi =    T
(PID.TID 0000.0001) S/R ADAUTODIFF_INADMODE_UNSET: useSEAICE =    T
(PID.TID 0000.0001) S/R ADAUTODIFF_INADMODE_UNSET: useGGL90    =    F
(PID.TID 0000.0001) S/R ADAUTODIFF_INADMODE_UNSET: useSALT_PLUME    =    F
(PID.TID 0000.0001) S/R ADAUTODIFF_INADMODE_UNSET: viscFacAdj = 1.00000000000000E+00
(PID.TID 0000.0001)  MDS_READ_FIELD: opening global file: adm_sst_step.0000000001.data
(PID.TID 0000.0001)  MDS_WRITE_FIELD: it,rec,kS,kL,kH=       1    -3  23   1   1 file=adm_sst_step.0000000001
(PID.TID 0000.0001) ADREAD:  tid,vid, irec, length, prec(x2)=    41     1     1      672  8 64 fname=tapelev2_1_the_main_loop_etan
(PID.TID 0000.0001) ADREAD:  tid,vid, irec, length, prec(x2)=    41     2     1      672  8 64 fname=tapelev2_2_the_main_loop_taux0
(PID.TID 0000.0001) ADREAD:  tid,vid, irec, length, prec(x2)=    41     3     1      672  8 64 fname=tapelev2_3_the_main_loop_taux1
(PID.TID 0000.0001) ADREAD:  tid,vid, irec, length, prec(x2)=    41     4     1      672  8 64 fname=tapelev2_4_the_main_loop_tauy0
(PID.TID 0000.0001) ADREAD:  tid,vid, irec, length, prec(x2)=    41     5     1      672  8 64 fname=tapelev2_5_the_main_loop_tauy1
(PID.TID 0000.0001) ADREAD:  tid,vid, irec, length, prec(x2)=    41     6     1      672  8 64 fname=tapelev2_6_the_main_loop_qnet0
(PID.TID 0000.0001) ADREAD:  tid,vid, irec, length, prec(x2)=    41     7     1      672  8 64 fname=tapelev2_7_the_main_loop_qnet1
(PID.TID 0000.0001) ADREAD:  tid,vid, irec, length, prec(x2)=    41     8     1      672  8 64 fname=tapelev2_8_the_main_loop_empmr0
(PID.TID 0000.0001) ADREAD:  tid,vid, irec, length, prec(x2)=    41     9     1      672  8 64 fname=tapelev2_9_the_main_loop_empmr1
(PID.TID 0000.0001) ADREAD:  tid,vid, irec, length, prec(x2)=    41    10     1      672  8 64 fname=tapelev2_10_the_main_loop_sst0
(PID.TID 0000.0001) ADREAD:  tid,vid, irec, length, prec(x2)=    41    11     1      672  8 64 fname=tapelev2_11_the_main_loop_sst1
(PID.TID 0000.0001) ADREAD:  tid,vid, irec, length, prec(x2)=    41    12     1      672  8 64 fname=tapelev2_12_the_main_loop_sss0
(PID.TID 0000.0001) ADREAD:  tid,vid, irec, length, prec(x2)=    41    13     1      672  8 64 fname=tapelev2_13_the_main_loop_sss1
(PID.TID 0000.0001) ADREAD:  tid,vid, irec, length, prec(x2)=    41    14     1      672  8 64 fname=tapelev2_14_the_main_loop_saltflux0
(PID.TID 0000.0001) ADREAD:  tid,vid, irec, length, prec(x2)=    41    15     1      672  8 64 fname=tapelev2_15_the_main_loop_saltflux1
(PID.TID 0000.0001) ADREAD:  tid,vid, irec, length, prec(x2)=    41    16     1      672  8 64 fname=tapelev2_16_the_main_loop_qsw0
(PID.TID 0000.0001) ADREAD:  tid,vid, irec, length, prec(x2)=    41    17     1      672  8 64 fname=tapelev2_17_the_main_loop_qsw1
(PID.TID 0000.0001) ADREAD:  tid,vid, irec, length, prec(x2)=    41    18     1      672  8 64 fname=tapelev2_18_the_main_loop_pload0
(PID.TID 0000.0001) ADREAD:  tid,vid, irec, length, prec(x2)=    41    19     1      672  8 64 fname=tapelev2_19_the_main_loop_pload1
(PID.TID 0000.0001) ADREAD:  tid,vid, irec, length, prec(x2)=    41    20     1      672  8 64 fname=tapelev2_20_the_main_loop_etah
(PID.TID 0000.0001) ADREAD:  tid,vid, irec, length, prec(x2)=    41    21     1      672  8 64 fname=tapelev2_21_the_main_loop_detahdt
(PID.TID 0000.0001) ADREAD:  tid,vid, irec, length, prec(x2)=    41    22     1      672  8 64 fname=tapelev2_22_the_main_loop_pmepr
(PID.TID 0000.0001) ADREAD:  tid,vid, irec, length, prec(x2)=    41    23     1    15456  8 64 fname=tapelev2_23_the_main_loop_gtnm1
(PID.TID 0000.0001) ADREAD:  tid,vid, irec, length, prec(x2)=    41    24     1    15456  8 64 fname=tapelev2_24_the_main_loop_gsnm1
(PID.TID 0000.0001) ADREAD:  tid,vid, irec, length, prec(x2)=    41    25     1    15456  8 64 fname=tapelev2_25_the_main_loop_gunm1
(PID.TID 0000.0001) ADREAD:  tid,vid, irec, length, prec(x2)=    41    26     1    15456  8 64 fname=tapelev2_26_the_main_loop_gvnm1
(PID.TID 0000.0001) ADREAD:  tid,vid, irec, length, prec(x2)=    41    27     1    15456  8 64 fname=tapelev2_27_the_main_loop_theta
(PID.TID 0000.0001) ADREAD:  tid,vid, irec, length, prec(x2)=    41    28     1    15456  8 64 fname=tapelev2_28_the_main_loop_salt
(PID.TID 0000.0001) ADREAD:  tid,vid, irec, length, prec(x2)=    41    29     1    15456  8 64 fname=tapelev2_29_the_main_loop_uvel
(PID.TID 0000.0001) ADREAD:  tid,vid, irec, length, prec(x2)=    41    30     1    15456  8 64 fname=tapelev2_30_the_main_loop_vvel
(PID.TID 0000.0001) ADREAD:  tid,vid, irec, length, prec(x2)=    41    31     1    15456  8 64 fname=tapelev2_31_the_main_loop_wvel
(PID.TID 0000.0001) ADREAD:  tid,vid, irec, length, prec(x2)=    41    32     1    15456  8 64 fname=tapelev2_32_the_main_loop_totphihyd
(PID.TID 0000.0001) ADREAD:  tid,vid, irec, length, prec(x2)=    41    35     1    15456  8 64 fname=tapelev2_35_the_main_loop_uveld
(PID.TID 0000.0001) ADREAD:  tid,vid, irec, length, prec(x2)=    41    36     1    15456  8 64 fname=tapelev2_36_the_main_loop_vveld
(PID.TID 0000.0001) ADREAD:  tid,vid, irec, length, prec(x2)=    41    37     1      672  8 64 fname=tapelev2_37_the_main_loop_etanm1
(PID.TID 0000.0001) ADREAD:  tid,vid, irec, length, prec(x2)=    41    38     1    15456  8 64 fname=tapelev2_38_the_main_loop_unm1
(PID.TID 0000.0001) ADREAD:  tid,vid, irec, length, prec(x2)=    41    39     1    15456  8 64 fname=tapelev2_39_the_main_loop_vnm1
(PID.TID 0000.0001) ADREAD:  tid,vid, irec, length, prec(x2)=    41    40     1      672  8 64 fname=tapelev2_40_the_main_loop_areamask0
(PID.TID 0000.0001) ADREAD:  tid,vid, irec, length, prec(x2)=    41    41     1      672  8 64 fname=tapelev2_41_the_main_loop_areamask1
(PID.TID 0000.0001) ADREAD:  tid,vid, irec, length, prec(x2)=    41    42     1      672  8 64 fname=tapelev2_42_the_main_loop_hflux0
(PID.TID 0000.0001) ADREAD:  tid,vid, irec, length, prec(x2)=    41    43     1      672  8 64 fname=tapelev2_43_the_main_loop_hflux1
(PID.TID 0000.0001) ADREAD:  tid,vid, irec, length, prec(x2)=    41    44     1      672  8 64 fname=tapelev2_44_the_main_loop_sflux0
(PID.TID 0000.0001) ADREAD:  tid,vid, irec, length, prec(x2)=    41    45     1      672  8 64 fname=tapelev2_45_the_main_loop_sflux1
(PID.TID 0000.0001) ADREAD:  tid,vid, irec, length, prec(x2)=    41    46     1      672  8 64 fname=tapelev2_46_the_main_loop_ustress0
(PID.TID 0000.0001) ADREAD:  tid,vid, irec, length, prec(x2)=    41    47     1      672  8 64 fname=tapelev2_47_the_main_loop_ustress1
(PID.TID 0000.0001) ADREAD:  tid,vid, irec, length, prec(x2)=    41    48     1      672  8 64 fname=tapelev2_48_the_main_loop_vstress0
(PID.TID 0000.0001) ADREAD:  tid,vid, irec, length, prec(x2)=    41    49     1      672  8 64 fname=tapelev2_49_the_main_loop_vstress1
(PID.TID 0000.0001) ADREAD:  tid,vid, irec, length, prec(x2)=    41    50     1      672  8 64 fname=tapelev2_50_the_main_loop_wspeed0
(PID.TID 0000.0001) ADREAD:  tid,vid, irec, length, prec(x2)=    41    51     1      672  8 64 fname=tapelev2_51_the_main_loop_wspeed1
(PID.TID 0000.0001) ADREAD:  tid,vid, irec, length, prec(x2)=    41    54     1      672  8 64 fname=tapelev2_54_the_main_loop_runoff0
(PID.TID 0000.0001) ADREAD:  tid,vid, irec, length, prec(x2)=    41    55     1      672  8 64 fname=tapelev2_55_the_main_loop_runoff1
(PID.TID 0000.0001) ADREAD:  tid,vid, irec, length, prec(x2)=    41    56     1      672  8 64 fname=tapelev2_56_the_main_loop_apressure0
(PID.TID 0000.0001) ADREAD:  tid,vid, irec, length, prec(x2)=    41    57     1      672  8 64 fname=tapelev2_57_the_main_loop_apressure1
(PID.TID 0000.0001) ADREAD:  tid,vid, irec, length, prec(x2)=    41    58     1      672  8 64 fname=tapelev2_58_the_main_loop_siceload
(PID.TID 0000.0001) ADREAD:  tid,vid, irec, length, prec(x2)=    41    59     1      672  8 64 fname=tapelev2_59_the_main_loop_climsss0
(PID.TID 0000.0001) ADREAD:  tid,vid, irec, length, prec(x2)=    41    60     1      672  8 64 fname=tapelev2_60_the_main_loop_climsss1
(PID.TID 0000.0001) ADREAD:  tid,vid, irec, length, prec(x2)=    41    61     1      672  8 64 fname=tapelev2_61_the_main_loop_climsst0
(PID.TID 0000.0001) ADREAD:  tid,vid, irec, length, prec(x2)=    41    62     1      672  8 64 fname=tapelev2_62_the_main_loop_climsst1
(PID.TID 0000.0001) ADREAD:  tid,vid, irec, length, prec(x2)=    41    63     1      672  8 64 fname=tapelev2_63_the_main_loop_saltflx0
(PID.TID 0000.0001) ADREAD:  tid,vid, irec, length, prec(x2)=    41    64     1      672  8 64 fname=tapelev2_64_the_main_loop_saltflx1
(PID.TID 0000.0001) ADREAD:  tid,vid, irec, length, prec(x2)=    41    65     1      672  8 64 fname=tapelev2_65_the_main_loop_aqh0
(PID.TID 0000.0001) ADREAD:  tid,vid, irec, length, prec(x2)=    41    66     1      672  8 64 fname=tapelev2_66_the_main_loop_aqh1
(PID.TID 0000.0001) ADREAD:  tid,vid, irec, length, prec(x2)=    41    67     1      672  8 64 fname=tapelev2_67_the_main_loop_atemp0
(PID.TID 0000.0001) ADREAD:  tid,vid, irec, length, prec(x2)=    41    68     1      672  8 64 fname=tapelev2_68_the_main_loop_atemp1
(PID.TID 0000.0001) ADREAD:  tid,vid, irec, length, prec(x2)=    41    69     1      672  8 64 fname=tapelev2_69_the_main_loop_precip0
(PID.TID 0000.0001) ADREAD:  tid,vid, irec, length, prec(x2)=    41    70     1      672  8 64 fname=tapelev2_70_the_main_loop_precip1
(PID.TID 0000.0001) ADREAD:  tid,vid, irec, length, prec(x2)=    41    73     1      672  8 64 fname=tapelev2_73_the_main_loop_snowprecip0
(PID.TID 0000.0001) ADREAD:  tid,vid, irec, length, prec(x2)=    41    74     1      672  8 64 fname=tapelev2_74_the_main_loop_snowprecip1
(PID.TID 0000.0001) ADREAD:  tid,vid, irec, length, prec(x2)=    41    75     1      672  8 64 fname=tapelev2_75_the_main_loop_swdown0
(PID.TID 0000.0001) ADREAD:  tid,vid, irec, length, prec(x2)=    41    76     1      672  8 64 fname=tapelev2_76_the_main_loop_swdown1
(PID.TID 0000.0001) ADREAD:  tid,vid, irec, length, prec(x2)=    41    77     1      672  8 64 fname=tapelev2_77_the_main_loop_lwdown0
(PID.TID 0000.0001) ADREAD:  tid,vid, irec, length, prec(x2)=    41    78     1      672  8 64 fname=tapelev2_78_the_main_loop_lwdown1
(PID.TID 0000.0001) ADREAD:  tid,vid, irec, length, prec(x2)=    41    79     1      672  8 64 fname=tapelev2_79_the_main_loop_uwind0
(PID.TID 0000.0001) ADREAD:  tid,vid, irec, length, prec(x2)=    41    80     1      672  8 64 fname=tapelev2_80_the_main_loop_uwind1
(PID.TID 0000.0001) ADREAD:  tid,vid, irec, length, prec(x2)=    41    81     1      672  8 64 fname=tapelev2_81_the_main_loop_vwind0
(PID.TID 0000.0001) ADREAD:  tid,vid, irec, length, prec(x2)=    41    82     1      672  8 64 fname=tapelev2_82_the_main_loop_vwind1
(PID.TID 0000.0001) ADREAD:  tid,vid, irec, length, prec(x2)=    41    83     1     6048  8 64 fname=tapelev2_83_the_main_loop_xx_gentim2d
(PID.TID 0000.0001) ADREAD:  tid,vid, irec, length, prec(x2)=    41    84     1     6048  8 64 fname=tapelev2_84_the_main_loop_xx_gentim2d0
(PID.TID 0000.0001) ADREAD:  tid,vid, irec, length, prec(x2)=    41    85     1     6048  8 64 fname=tapelev2_85_the_main_loop_xx_gentim2d1
(PID.TID 0000.0001) ADREAD:  tid,vid, irec, length, prec(x2)=    41    87     1      672  8 64 fname=tapelev2_87_the_main_loop_phihydlow
(PID.TID 0000.0001) ADREAD:  tid,vid, irec, length, prec(x2)=    41    88     1      672  8 64 fname=tapelev2_88_the_main_loop_area
(PID.TID 0000.0001) ADREAD:  tid,vid, irec, length, prec(x2)=    41    89     1      672  8 64 fname=tapelev2_89_the_main_loop_heff
(PID.TID 0000.0001) ADREAD:  tid,vid, irec, length, prec(x2)=    41    90     1      672  8 64 fname=tapelev2_90_the_main_loop_hsnow
(PID.TID 0000.0001) ADREAD:  tid,vid, irec, length, prec(x2)=    41    92     1      672  8 64 fname=tapelev2_92_the_main_loop_uice
(PID.TID 0000.0001) ADREAD:  tid,vid, irec, length, prec(x2)=    41    93     1      672  8 64 fname=tapelev2_93_the_main_loop_vice
(PID.TID 0000.0001) ADREAD:  tid,vid, irec, length, prec(x2)=    41    96     1     4704  8 64 fname=tapelev2_96_the_main_loop_tices
(PID.TID 0000.0001) ADREAD:  tid,vid, irec, length, prec(x2)=    41    97     1      672  8 64 fname=tapelev2_97_the_main_loop_dwatn
(PID.TID 0000.0001) ADREAD:  tid,vid, irec, length, prec(x2)=    41    98     1      672  8 64 fname=tapelev2_98_the_main_loop_stressdivergencex
(PID.TID 0000.0001) ADREAD:  tid,vid, irec, length, prec(x2)=    41    99     1      672  8 64 fname=tapelev2_99_the_main_loop_stressdivergencey
(PID.TID 0000.0001) ADREAD:  tid,vid, irec, length, prec(x2)=    41   100     1      672  8 64 fname=tapelev2_100_the_main_loop_seaice_sigma1
(PID.TID 0000.0001) ADREAD:  tid,vid, irec, length, prec(x2)=    41   101     1      672  8 64 fname=tapelev2_101_the_main_loop_seaice_sigma2
(PID.TID 0000.0001) ADREAD:  tid,vid, irec, length, prec(x2)=    41   102     1      672  8 64 fname=tapelev2_102_the_main_loop_seaice_sigma12
(PID.TID 0000.0001) ADREAD:  tid,vid, irec, length, prec(x2)=    41   103     1      672  8 64 fname=tapelev2_103_the_main_loop_hsalt
(PID.TID 0000.0001)  MDS_READ_FIELD: opening global file: xx_atemp.effective.0000000001.data
(PID.TID 0000.0001)  MDS_READ_FIELD: opening global file: xx_atemp.effective.0000000001.data
(PID.TID 0000.0001) EXF_SET_FLD: processing field "climsss",  file: SSS_monthly.labsea1979
(PID.TID 0000.0001) EXF_SET_FLD:   myIter, count0, count1:         0      1      2
(PID.TID 0000.0001) EXF_SET_FLD:   first, changed, fac:   T   F    0.50000000000000000
(PID.TID 0000.0001) EXF_SET_FLD: field "climsss", it=         0, loading rec=     1
(PID.TID 0000.0001) EXF_SET_FLD:   from file: "SSS_monthly.labsea1979"
(PID.TID 0000.0001)  MDS_READ_FIELD: opening global file: SSS_monthly.labsea1979
(PID.TID 0000.0001) EXF_SET_FLD: field "climsss", it=         0, loading rec=     2
(PID.TID 0000.0001) EXF_SET_FLD:   from file: "SSS_monthly.labsea1979"
(PID.TID 0000.0001)  MDS_READ_FIELD: opening global file: SSS_monthly.labsea1979
(PID.TID 0000.0001) EXF_SET_FLD: processing field "uwind",  file: u10m.labsea1979
(PID.TID 0000.0001) EXF_SET_FLD:   myIter, count0, count1:         0      1      2
(PID.TID 0000.0001) EXF_SET_FLD:   first, changed, fac:   T   F    0.50000000000000000
(PID.TID 0000.0001) EXF_SET_FLD: field "uwind", it=         0, loading rec=     1
(PID.TID 0000.0001) EXF_SET_FLD:   from file: "u10m.labsea1979"
(PID.TID 0000.0001)  MDS_READ_FIELD: opening global file: u10m.labsea1979
(PID.TID 0000.0001) EXF_SET_FLD: field "uwind", it=         0, loading rec=     2
(PID.TID 0000.0001) EXF_SET_FLD:   from file: "u10m.labsea1979"
(PID.TID 0000.0001)  MDS_READ_FIELD: opening global file: u10m.labsea1979
(PID.TID 0000.0001) EXF_SET_FLD: processing field "vwind",  file: v10m.labsea1979
(PID.TID 0000.0001) EXF_SET_FLD:   myIter, count0, count1:         0      1      2
(PID.TID 0000.0001) EXF_SET_FLD:   first, changed, fac:   T   F    0.50000000000000000
(PID.TID 0000.0001) EXF_SET_FLD: field "vwind", it=         0, loading rec=     1
(PID.TID 0000.0001) EXF_SET_FLD:   from file: "v10m.labsea1979"
(PID.TID 0000.0001)  MDS_READ_FIELD: opening global file: v10m.labsea1979
(PID.TID 0000.0001) EXF_SET_FLD: field "vwind", it=         0, loading rec=     2
(PID.TID 0000.0001) EXF_SET_FLD:   from file: "v10m.labsea1979"
(PID.TID 0000.0001)  MDS_READ_FIELD: opening global file: v10m.labsea1979
(PID.TID 0000.0001) EXF_SET_FLD: processing field "atemp",  file: tair.labsea1979
(PID.TID 0000.0001) EXF_SET_FLD:   myIter, count0, count1:         0      1      2
(PID.TID 0000.0001) EXF_SET_FLD:   first, changed, fac:   T   F    0.50000000000000000
(PID.TID 0000.0001) EXF_SET_FLD: field "atemp", it=         0, loading rec=     1
(PID.TID 0000.0001) EXF_SET_FLD:   from file: "tair.labsea1979"
(PID.TID 0000.0001)  MDS_READ_FIELD: opening global file: tair.labsea1979
(PID.TID 0000.0001) EXF_SET_FLD: field "atemp", it=         0, loading rec=     2
(PID.TID 0000.0001) EXF_SET_FLD:   from file: "tair.labsea1979"
(PID.TID 0000.0001)  MDS_READ_FIELD: opening global file: tair.labsea1979
(PID.TID 0000.0001) EXF_SET_FLD: processing field "aqh",  file: qa.labsea1979
(PID.TID 0000.0001) EXF_SET_FLD:   myIter, count0, count1:         0      1      2
(PID.TID 0000.0001) EXF_SET_FLD:   first, changed, fac:   T   F    0.50000000000000000
(PID.TID 0000.0001) EXF_SET_FLD: field "aqh", it=         0, loading rec=     1
(PID.TID 0000.0001) EXF_SET_FLD:   from file: "qa.labsea1979"
(PID.TID 0000.0001)  MDS_READ_FIELD: opening global file: qa.labsea1979
(PID.TID 0000.0001) EXF_SET_FLD: field "aqh", it=         0, loading rec=     2
(PID.TID 0000.0001) EXF_SET_FLD:   from file: "qa.labsea1979"
(PID.TID 0000.0001)  MDS_READ_FIELD: opening global file: qa.labsea1979
(PID.TID 0000.0001) EXF_SET_FLD: processing field "precip",  file: prate.labsea1979
(PID.TID 0000.0001) EXF_SET_FLD:   myIter, count0, count1:         0      1      2
(PID.TID 0000.0001) EXF_SET_FLD:   first, changed, fac:   T   F    0.50000000000000000
(PID.TID 0000.0001) EXF_SET_FLD: field "precip", it=         0, loading rec=     1
(PID.TID 0000.0001) EXF_SET_FLD:   from file: "prate.labsea1979"
(PID.TID 0000.0001)  MDS_READ_FIELD: opening global file: prate.labsea1979
(PID.TID 0000.0001) EXF_SET_FLD: field "precip", it=         0, loading rec=     2
(PID.TID 0000.0001) EXF_SET_FLD:   from file: "prate.labsea1979"
(PID.TID 0000.0001)  MDS_READ_FIELD: opening global file: prate.labsea1979
(PID.TID 0000.0001) EXF_SET_FLD: processing field "swdown",  file: fsh.labsea1979
(PID.TID 0000.0001) EXF_SET_FLD:   myIter, count0, count1:         0      1      2
(PID.TID 0000.0001) EXF_SET_FLD:   first, changed, fac:   T   F    0.50000000000000000
(PID.TID 0000.0001) EXF_SET_FLD: field "swdown", it=         0, loading rec=     1
(PID.TID 0000.0001) EXF_SET_FLD:   from file: "fsh.labsea1979"
(PID.TID 0000.0001)  MDS_READ_FIELD: opening global file: fsh.labsea1979
(PID.TID 0000.0001) EXF_SET_FLD: field "swdown", it=         0, loading rec=     2
(PID.TID 0000.0001) EXF_SET_FLD:   from file: "fsh.labsea1979"
(PID.TID 0000.0001)  MDS_READ_FIELD: opening global file: fsh.labsea1979
(PID.TID 0000.0001) EXF_SET_FLD: processing field "lwdown",  file: flo.labsea1979
(PID.TID 0000.0001) EXF_SET_FLD:   myIter, count0, count1:         0      1      2
(PID.TID 0000.0001) EXF_SET_FLD:   first, changed, fac:   T   F    0.50000000000000000
(PID.TID 0000.0001) EXF_SET_FLD: field "lwdown", it=         0, loading rec=     1
(PID.TID 0000.0001) EXF_SET_FLD:   from file: "flo.labsea1979"
(PID.TID 0000.0001)  MDS_READ_FIELD: opening global file: flo.labsea1979
(PID.TID 0000.0001) EXF_SET_FLD: field "lwdown", it=         0, loading rec=     2
(PID.TID 0000.0001) EXF_SET_FLD:   from file: "flo.labsea1979"
(PID.TID 0000.0001)  MDS_READ_FIELD: opening global file: flo.labsea1979
(PID.TID 0000.0001) SOLVE_FOR_PRESSURE: putPmEinXvector =    F
DEBUG_STATS_RL:    cg2d_b (SOLVE_FOR_PRESSURE)  min= -6.15797366908278E+03
DEBUG_STATS_RL:    cg2d_b (SOLVE_FOR_PRESSURE)  max=  2.03762696322118E+03
DEBUG_STATS_RL:    cg2d_b (SOLVE_FOR_PRESSURE) mean=  2.40637139844087E-14
DEBUG_STATS_RL:    cg2d_b (SOLVE_FOR_PRESSURE) S.D.=  8.03730450548215E+02
 cg2d: Sum(rhs),rhsMax =   7.91033905045424E-16  9.91122157459750E-01
DEBUG_STATS_RL:    cg2d_x (SOLVE_FOR_PRESSURE)  min= -7.77200124675132E-01
DEBUG_STATS_RL:    cg2d_x (SOLVE_FOR_PRESSURE)  max=  2.02552651121663E+00
DEBUG_STATS_RL:    cg2d_x (SOLVE_FOR_PRESSURE) mean= -8.58037095103906E-03
DEBUG_STATS_RL:    cg2d_x (SOLVE_FOR_PRESSURE) S.D.=  4.14863218307968E-01
(PID.TID 0000.0001)  MDS_READ_FIELD: opening global file: xx_atemp.effective.0000000001.data
(PID.TID 0000.0001) EXF_SET_FLD: processing field "climsss",  file: SSS_monthly.labsea1979
(PID.TID 0000.0001) EXF_SET_FLD:   myIter, count0, count1:         1      1      2
(PID.TID 0000.0001) EXF_SET_FLD:   first, changed, fac:   F   F    0.49863387978142082
(PID.TID 0000.0001) EXF_SET_FLD: processing field "uwind",  file: u10m.labsea1979
(PID.TID 0000.0001) EXF_SET_FLD:   myIter, count0, count1:         1      1      2
(PID.TID 0000.0001) EXF_SET_FLD:   first, changed, fac:   F   F    0.49863387978142082
(PID.TID 0000.0001) EXF_SET_FLD: processing field "vwind",  file: v10m.labsea1979
(PID.TID 0000.0001) EXF_SET_FLD:   myIter, count0, count1:         1      1      2
(PID.TID 0000.0001) EXF_SET_FLD:   first, changed, fac:   F   F    0.49863387978142082
(PID.TID 0000.0001) EXF_SET_FLD: processing field "atemp",  file: tair.labsea1979
(PID.TID 0000.0001) EXF_SET_FLD:   myIter, count0, count1:         1      1      2
(PID.TID 0000.0001) EXF_SET_FLD:   first, changed, fac:   F   F    0.49863387978142082
(PID.TID 0000.0001) EXF_SET_FLD: processing field "aqh",  file: qa.labsea1979
(PID.TID 0000.0001) EXF_SET_FLD:   myIter, count0, count1:         1      1      2
(PID.TID 0000.0001) EXF_SET_FLD:   first, changed, fac:   F   F    0.49863387978142082
(PID.TID 0000.0001) EXF_SET_FLD: processing field "precip",  file: prate.labsea1979
(PID.TID 0000.0001) EXF_SET_FLD:   myIter, count0, count1:         1      1      2
(PID.TID 0000.0001) EXF_SET_FLD:   first, changed, fac:   F   F    0.49863387978142082
(PID.TID 0000.0001) EXF_SET_FLD: processing field "swdown",  file: fsh.labsea1979
(PID.TID 0000.0001) EXF_SET_FLD:   myIter, count0, count1:         1      1      2
(PID.TID 0000.0001) EXF_SET_FLD:   first, changed, fac:   F   F    0.49863387978142082
(PID.TID 0000.0001) EXF_SET_FLD: processing field "lwdown",  file: flo.labsea1979
(PID.TID 0000.0001) EXF_SET_FLD:   myIter, count0, count1:         1      1      2
(PID.TID 0000.0001) EXF_SET_FLD:   first, changed, fac:   F   F    0.49863387978142082
DEBUG_STATS_RL:    cg2d_b (SOLVE_FOR_PRESSURE)  min= -7.40048897093643E+03
DEBUG_STATS_RL:    cg2d_b (SOLVE_FOR_PRESSURE)  max=  2.33428667016753E+03
DEBUG_STATS_RL:    cg2d_b (SOLVE_FOR_PRESSURE) mean=  5.15380331004659E-14
DEBUG_STATS_RL:    cg2d_b (SOLVE_FOR_PRESSURE) S.D.=  9.39768538610364E+02
 cg2d: Sum(rhs),rhsMax =   1.53002610581154E-15  1.19110424780756E+00
DEBUG_STATS_RL:    cg2d_x (SOLVE_FOR_PRESSURE)  min= -1.25977767814675E+00
DEBUG_STATS_RL:    cg2d_x (SOLVE_FOR_PRESSURE)  max=  2.83276936769467E+00
DEBUG_STATS_RL:    cg2d_x (SOLVE_FOR_PRESSURE) mean= -1.56118539430791E-02
DEBUG_STATS_RL:    cg2d_x (SOLVE_FOR_PRESSURE) S.D.=  6.63083405130026E-01
(PID.TID 0000.0001) S/R ADAUTODIFF_INADMODE_SET: useKPP    =    T
(PID.TID 0000.0001) S/R ADAUTODIFF_INADMODE_SET: useGMRedi =    T
(PID.TID 0000.0001) S/R ADAUTODIFF_INADMODE_SET: useSEAICE =    T
(PID.TID 0000.0001) S/R ADAUTODIFF_INADMODE_SET: useGGL90    =    F
(PID.TID 0000.0001) S/R ADAUTODIFF_INADMODE_SET: useSALT_PLUME    =    F
(PID.TID 0000.0001) S/R ADAUTODIFF_INADMODE_SET: viscFacAdj = 1.00000000000000E+00
(PID.TID 0000.0001) // =======================================================
(PID.TID 0000.0001) // Begin AD_MONITOR dynamic field statistics
(PID.TID 0000.0001) // =======================================================
(PID.TID 0000.0001) %MON ad_time_tsnumber             =                     2
(PID.TID 0000.0001) %MON ad_time_secondsf             =   7.2000000000000E+03
(PID.TID 0000.0001) %MON ad_dynstat_adeta_max         =   1.1454760043927E+09
(PID.TID 0000.0001) %MON ad_dynstat_adeta_min         =  -4.7999890741702E+08
(PID.TID 0000.0001) %MON ad_dynstat_adeta_mean        =  -5.7110321845640E+05
(PID.TID 0000.0001) %MON ad_dynstat_adeta_sd          =   1.5890499782837E+08
(PID.TID 0000.0001) %MON ad_dynstat_adeta_del2        =   3.7762066879281E+07
(PID.TID 0000.0001) %MON ad_dynstat_aduvel_max        =   2.0163330783039E+10
(PID.TID 0000.0001) %MON ad_dynstat_aduvel_min        =  -1.1250254689710E+11
(PID.TID 0000.0001) %MON ad_dynstat_aduvel_mean       =  -1.6001455932981E+07
(PID.TID 0000.0001) %MON ad_dynstat_aduvel_sd         =   1.2523794504800E+09
(PID.TID 0000.0001) %MON ad_dynstat_aduvel_del2       =   2.4677198165454E+08
(PID.TID 0000.0001) %MON ad_dynstat_advvel_max        =   4.1528871443314E+10
(PID.TID 0000.0001) %MON ad_dynstat_advvel_min        =  -6.0152993905632E+10
(PID.TID 0000.0001) %MON ad_dynstat_advvel_mean       =  -3.6929384795509E+06
(PID.TID 0000.0001) %MON ad_dynstat_advvel_sd         =   8.0314010120144E+08
(PID.TID 0000.0001) %MON ad_dynstat_advvel_del2       =   2.0125571984060E+08
(PID.TID 0000.0001) %MON ad_dynstat_adwvel_max        =   2.0076256532749E+10
(PID.TID 0000.0001) %MON ad_dynstat_adwvel_min        =  -1.7255179412519E+10
(PID.TID 0000.0001) %MON ad_dynstat_adwvel_mean       =  -5.5612335574296E+05
(PID.TID 0000.0001) %MON ad_dynstat_adwvel_sd         =   3.1490520738445E+08
(PID.TID 0000.0001) %MON ad_dynstat_adwvel_del2       =   8.5037996490585E+07
(PID.TID 0000.0001) %MON ad_dynstat_adtheta_max       =   6.0829714211339E+08
(PID.TID 0000.0001) %MON ad_dynstat_adtheta_min       =  -2.0476065542680E+08
(PID.TID 0000.0001) %MON ad_dynstat_adtheta_mean      =   4.7653724764674E+04
(PID.TID 0000.0001) %MON ad_dynstat_adtheta_sd        =   6.8788741222705E+06
(PID.TID 0000.0001) %MON ad_dynstat_adtheta_del2      =   1.1390654920048E+06
(PID.TID 0000.0001) %MON ad_dynstat_adsalt_max        =   7.1711046883456E+07
(PID.TID 0000.0001) %MON ad_dynstat_adsalt_min        =  -2.6754504871575E+08
(PID.TID 0000.0001) %MON ad_dynstat_adsalt_mean       =  -6.7113325164928E+04
(PID.TID 0000.0001) %MON ad_dynstat_adsalt_sd         =   2.6374615620144E+07
(PID.TID 0000.0001) %MON ad_dynstat_adsalt_del2       =   1.3009434981861E+06
(PID.TID 0000.0001) %MON ad_dynstat_adsst_max         =   6.0829714211339E+08
(PID.TID 0000.0001) %MON ad_dynstat_adsst_min         =  -2.0476065542680E+08
(PID.TID 0000.0001) %MON ad_dynstat_adsst_mean        =   5.5825934675230E+06
(PID.TID 0000.0001) %MON ad_dynstat_adsst_sd          =   6.4078319475885E+07
(PID.TID 0000.0001) %MON ad_dynstat_adsst_del2        =   1.3889092081544E+07
(PID.TID 0000.0001) %MON ad_dynstat_adsss_max         =   1.3658022874632E+06
(PID.TID 0000.0001) %MON ad_dynstat_adsss_min         =  -6.9205402355339E+06
(PID.TID 0000.0001) %MON ad_dynstat_adsss_mean        =  -1.7125953617364E+03
(PID.TID 0000.0001) %MON ad_dynstat_adsss_sd          =   7.0041743515932E+05
(PID.TID 0000.0001) %MON ad_dynstat_adsss_del2        =   1.9795557236693E+05
(PID.TID 0000.0001) // =======================================================
(PID.TID 0000.0001) // End AD_MONITOR dynamic field statistics
(PID.TID 0000.0001) // =======================================================
(PID.TID 0000.0001) // =======================================================
(PID.TID 0000.0001) // Begin AD_MONITOR SEAICE statistics
(PID.TID 0000.0001) // =======================================================
(PID.TID 0000.0001) %MON ad_seaice_tsnumber           =                     2
(PID.TID 0000.0001) %MON ad_seaice_time_sec           =   7.2000000000000E+03
(PID.TID 0000.0001) %MON ad_seaice_aduice_max         =   1.0354914548870E+12
(PID.TID 0000.0001) %MON ad_seaice_aduice_min         =  -2.0119605248127E+12
(PID.TID 0000.0001) %MON ad_seaice_aduice_mean        =   3.8308754721480E+09
(PID.TID 0000.0001) %MON ad_seaice_aduice_sd          =   2.7987239530173E+11
(PID.TID 0000.0001) %MON ad_seaice_aduice_del2        =   7.4886185451630E+10
(PID.TID 0000.0001) %MON ad_seaice_advice_max         =   7.1705248765023E+11
(PID.TID 0000.0001) %MON ad_seaice_advice_min         =  -8.2708134697770E+11
(PID.TID 0000.0001) %MON ad_seaice_advice_mean        =  -4.9470493276342E+08
(PID.TID 0000.0001) %MON ad_seaice_advice_sd          =   1.7595342414727E+11
(PID.TID 0000.0001) %MON ad_seaice_advice_del2        =   5.3782273774335E+10
(PID.TID 0000.0001) %MON ad_seaice_adarea_max         =   2.4450418393656E+11
(PID.TID 0000.0001) %MON ad_seaice_adarea_min         =  -9.8276125238706E+10
(PID.TID 0000.0001) %MON ad_seaice_adarea_mean        =   5.1787709112572E+09
(PID.TID 0000.0001) %MON ad_seaice_adarea_sd          =   3.5198533122321E+10
(PID.TID 0000.0001) %MON ad_seaice_adarea_del2        =   6.8009389165349E+09
(PID.TID 0000.0001) %MON ad_seaice_adheff_max         =   7.5931188785434E+10
(PID.TID 0000.0001) %MON ad_seaice_adheff_min         =  -3.4622013985199E+10
(PID.TID 0000.0001) %MON ad_seaice_adheff_mean        =   2.1511213503170E+09
(PID.TID 0000.0001) %MON ad_seaice_adheff_sd          =   1.2520782304141E+10
(PID.TID 0000.0001) %MON ad_seaice_adheff_del2        =   2.8118001088540E+09
(PID.TID 0000.0001) %MON ad_seaice_adhsnow_max        =   6.8598653302511E+08
(PID.TID 0000.0001) %MON ad_seaice_adhsnow_min        =  -2.0283345708084E+09
(PID.TID 0000.0001) %MON ad_seaice_adhsnow_mean       =  -1.8615740217638E+07
(PID.TID 0000.0001) %MON ad_seaice_adhsnow_sd         =   2.1357968553340E+08
(PID.TID 0000.0001) %MON ad_seaice_adhsnow_del2       =   4.6271603576758E+07
(PID.TID 0000.0001) %MON ad_seaice_adhsalt_max        =   1.0754359252434E+01
(PID.TID 0000.0001) %MON ad_seaice_adhsalt_min        =  -1.6031312732583E+01
(PID.TID 0000.0001) %MON ad_seaice_adhsalt_mean       =   7.5726799926148E-02
(PID.TID 0000.0001) %MON ad_seaice_adhsalt_sd         =   2.1161105156770E+00
(PID.TID 0000.0001) %MON ad_seaice_adhsalt_del2       =   5.7251582680413E-01
(PID.TID 0000.0001) // =======================================================
(PID.TID 0000.0001) // End AD_MONITOR SEAICE statistics
(PID.TID 0000.0001) // =======================================================
(PID.TID 0000.0001)  MDS_WRITE_FIELD: it,rec,kS,kL,kH=       2     1   1   1   1 file=ADJetan.0000000002
 Calling cg2d from S/R CG2D_MAD
 cg2d: Sum(rhs),rhsMax =  -2.37794335546278E-16  3.22336632947737E+05
(PID.TID 0000.0001)       CG2D_MAD cg2d_init_res =   1.67520613174315E+00
(PID.TID 0000.0001)      CG2D_MAD: cg2d_iters(min,last) =      -1      46
(PID.TID 0000.0001)      CG2D_MAD: cg2d_last_res =   3.41765022532738E-14
(PID.TID 0000.0001)  MDS_WRITE_FIELD: it,rec,kS,kL,kH=       1     1   1   1   1 file=ADJtaux.0000000001
(PID.TID 0000.0001)  MDS_WRITE_FIELD: it,rec,kS,kL,kH=       1     1   1   1   1 file=ADJtauy.0000000001
(PID.TID 0000.0001)  MDS_WRITE_FIELD: it,rec,kS,kL,kH=       1     1   1   1   1 file=ADJqnet.0000000001
(PID.TID 0000.0001)  MDS_WRITE_FIELD: it,rec,kS,kL,kH=       1     1   1   1   1 file=ADJempr.0000000001
(PID.TID 0000.0001)  MDS_WRITE_FIELD: it,rec,kS,kL,kH=       1     1   1   1   1 file=ADJqsw.0000000001
(PID.TID 0000.0001)  MDS_WRITE_FIELD: it,rec,kS,kL,kH=       1     1  23   1  23 file=ADJtheta.0000000001
(PID.TID 0000.0001)  MDS_WRITE_FIELD: it,rec,kS,kL,kH=       1     1  23   1  23 file=ADJsalt.0000000001
(PID.TID 0000.0001)  MDS_WRITE_FIELD: it,rec,kS,kL,kH=       1     1  23   1  23 file=ADJwvel.0000000001
(PID.TID 0000.0001)  MDS_WRITE_FIELD: it,rec,kS,kL,kH=       1     1  23   1  23 file=ADJuvel.0000000001
(PID.TID 0000.0001)  MDS_WRITE_FIELD: it,rec,kS,kL,kH=       1     1  23   1  23 file=ADJvvel.0000000001
(PID.TID 0000.0001)  MDS_WRITE_FIELD: it,rec,kS,kL,kH=       1     1   1   1   1 file=ADJarea.0000000001
(PID.TID 0000.0001)  MDS_WRITE_FIELD: it,rec,kS,kL,kH=       1     1   1   1   1 file=ADJheff.0000000001
(PID.TID 0000.0001)  MDS_WRITE_FIELD: it,rec,kS,kL,kH=       1     1   1   1   1 file=ADJhsnow.0000000001
(PID.TID 0000.0001)  MDS_WRITE_FIELD: it,rec,kS,kL,kH=       1     1   1   1   1 file=ADJuice.0000000001
(PID.TID 0000.0001)  MDS_WRITE_FIELD: it,rec,kS,kL,kH=       1     1   1   1   1 file=ADJvice.0000000001
(PID.TID 0000.0001)  MDS_WRITE_FIELD: it,rec,kS,kL,kH=       1     1   1   1   1 file=ADJustress.0000000001
(PID.TID 0000.0001)  MDS_WRITE_FIELD: it,rec,kS,kL,kH=       1     1   1   1   1 file=ADJvstress.0000000001
(PID.TID 0000.0001)  MDS_WRITE_FIELD: it,rec,kS,kL,kH=       1     1   1   1   1 file=ADJhflux.0000000001
(PID.TID 0000.0001)  MDS_WRITE_FIELD: it,rec,kS,kL,kH=       1     1   1   1   1 file=ADJsflux.0000000001
(PID.TID 0000.0001)  MDS_WRITE_FIELD: it,rec,kS,kL,kH=       1     1   1   1   1 file=ADJatemp.0000000001
(PID.TID 0000.0001)  MDS_WRITE_FIELD: it,rec,kS,kL,kH=       1     1   1   1   1 file=ADJaqh.0000000001
(PID.TID 0000.0001)  MDS_WRITE_FIELD: it,rec,kS,kL,kH=       1     1   1   1   1 file=ADJprecip.0000000001
(PID.TID 0000.0001)  MDS_WRITE_FIELD: it,rec,kS,kL,kH=       1     1   1   1   1 file=ADJrunoff.0000000001
(PID.TID 0000.0001)  MDS_WRITE_FIELD: it,rec,kS,kL,kH=       1     1   1   1   1 file=ADJuwind.0000000001
(PID.TID 0000.0001)  MDS_WRITE_FIELD: it,rec,kS,kL,kH=       1     1   1   1   1 file=ADJvwind.0000000001
(PID.TID 0000.0001)  MDS_WRITE_FIELD: it,rec,kS,kL,kH=       1     1   1   1   1 file=ADJswdown.0000000001
(PID.TID 0000.0001)  MDS_WRITE_FIELD: it,rec,kS,kL,kH=       1     1   1   1   1 file=ADJlwdown.0000000001
(PID.TID 0000.0001)  MDS_WRITE_FIELD: it,rec,kS,kL,kH=       1     1   1   1   1 file=ADJclimsst.0000000001
(PID.TID 0000.0001)  MDS_WRITE_FIELD: it,rec,kS,kL,kH=       1     1   1   1   1 file=ADJclimsss.0000000001
(PID.TID 0000.0001)  MDS_READ_FIELD: opening global file: adxx_atemp.effective.0000000001.data
(PID.TID 0000.0001)  MDS_WRITE_FIELD: it,rec,kS,kL,kH=       1    -3  23   1   1 file=adxx_atemp.effective.0000000001
(PID.TID 0000.0001) S/R ADAUTODIFF_INADMODE_UNSET: useKPP    =    T
(PID.TID 0000.0001) S/R ADAUTODIFF_INADMODE_UNSET: useGMRedi =    T
(PID.TID 0000.0001) S/R ADAUTODIFF_INADMODE_UNSET: useSEAICE =    T
(PID.TID 0000.0001) S/R ADAUTODIFF_INADMODE_UNSET: useGGL90    =    F
(PID.TID 0000.0001) S/R ADAUTODIFF_INADMODE_UNSET: useSALT_PLUME    =    F
(PID.TID 0000.0001) S/R ADAUTODIFF_INADMODE_UNSET: viscFacAdj = 1.00000000000000E+00
(PID.TID 0000.0001)  MDS_READ_FIELD: opening global file: adm_sst_step.0000000001.data
(PID.TID 0000.0001)  MDS_WRITE_FIELD: it,rec,kS,kL,kH=       1    -2  23   1   1 file=adm_sst_step.0000000001
(PID.TID 0000.0001) S/R ADAUTODIFF_INADMODE_SET: useKPP    =    T
(PID.TID 0000.0001) S/R ADAUTODIFF_INADMODE_SET: useGMRedi =    T
(PID.TID 0000.0001) S/R ADAUTODIFF_INADMODE_SET: useSEAICE =    T
(PID.TID 0000.0001) S/R ADAUTODIFF_INADMODE_SET: useGGL90    =    F
(PID.TID 0000.0001) S/R ADAUTODIFF_INADMODE_SET: useSALT_PLUME    =    F
(PID.TID 0000.0001) S/R ADAUTODIFF_INADMODE_SET: viscFacAdj = 1.00000000000000E+00
(PID.TID 0000.0001) // =======================================================
(PID.TID 0000.0001) // Begin AD_MONITOR dynamic field statistics
(PID.TID 0000.0001) // =======================================================
(PID.TID 0000.0001) %MON ad_time_tsnumber             =                     1
(PID.TID 0000.0001) %MON ad_time_secondsf             =   3.6000000000000E+03
(PID.TID 0000.0001) %MON ad_dynstat_adeta_max         =   2.1971203257935E+10
(PID.TID 0000.0001) %MON ad_dynstat_adeta_min         =  -9.8250266304935E+09
(PID.TID 0000.0001) %MON ad_dynstat_adeta_mean        =   2.1841115050358E+05
(PID.TID 0000.0001) %MON ad_dynstat_adeta_sd          =   2.6098999262461E+09
(PID.TID 0000.0001) %MON ad_dynstat_adeta_del2        =   6.4271553491978E+08
(PID.TID 0000.0001) %MON ad_dynstat_aduvel_max        =   8.6435768178562E+10
(PID.TID 0000.0001) %MON ad_dynstat_aduvel_min        =  -1.7455534836922E+11
(PID.TID 0000.0001) %MON ad_dynstat_aduvel_mean       =   1.5544054228218E+08
(PID.TID 0000.0001) %MON ad_dynstat_aduvel_sd         =   2.4541638121426E+09
(PID.TID 0000.0001) %MON ad_dynstat_aduvel_del2       =   4.1936555583428E+08
(PID.TID 0000.0001) %MON ad_dynstat_advvel_max        =   1.0667841781997E+11
(PID.TID 0000.0001) %MON ad_dynstat_advvel_min        =  -6.5212674879810E+10
(PID.TID 0000.0001) %MON ad_dynstat_advvel_mean       =   6.7974852562872E+06
(PID.TID 0000.0001) %MON ad_dynstat_advvel_sd         =   1.9532544610174E+09
(PID.TID 0000.0001) %MON ad_dynstat_advvel_del2       =   3.4379247674319E+08
(PID.TID 0000.0001) %MON ad_dynstat_adwvel_max        =   4.1748246520891E+11
(PID.TID 0000.0001) %MON ad_dynstat_adwvel_min        =  -3.9140661489030E+11
(PID.TID 0000.0001) %MON ad_dynstat_adwvel_mean       =  -3.4932021728197E+07
(PID.TID 0000.0001) %MON ad_dynstat_adwvel_sd         =   5.2963007888443E+09
(PID.TID 0000.0001) %MON ad_dynstat_adwvel_del2       =   9.8398546043316E+08
(PID.TID 0000.0001) %MON ad_dynstat_adtheta_max       =   3.3622994859832E+09
(PID.TID 0000.0001) %MON ad_dynstat_adtheta_min       =  -7.2208149591383E+09
(PID.TID 0000.0001) %MON ad_dynstat_adtheta_mean      =  -1.3769743361233E+06
(PID.TID 0000.0001) %MON ad_dynstat_adtheta_sd        =   1.2273447446425E+08
(PID.TID 0000.0001) %MON ad_dynstat_adtheta_del2      =   2.1925461966971E+07
(PID.TID 0000.0001) %MON ad_dynstat_adsalt_max        =   1.8793255817736E+09
(PID.TID 0000.0001) %MON ad_dynstat_adsalt_min        =  -3.1391528211968E+09
(PID.TID 0000.0001) %MON ad_dynstat_adsalt_mean       =  -4.8583233318095E+04
(PID.TID 0000.0001) %MON ad_dynstat_adsalt_sd         =   4.2217706311172E+08
(PID.TID 0000.0001) %MON ad_dynstat_adsalt_del2       =   1.4211100421154E+07
(PID.TID 0000.0001) %MON ad_dynstat_adsst_max         =   3.3622994859832E+09
(PID.TID 0000.0001) %MON ad_dynstat_adsst_min         =  -7.2208149591383E+09
(PID.TID 0000.0001) %MON ad_dynstat_adsst_mean        =  -2.0305211641715E+08
(PID.TID 0000.0001) %MON ad_dynstat_adsst_sd          =   1.1979784112297E+09
(PID.TID 0000.0001) %MON ad_dynstat_adsst_del2        =   2.7034537448220E+08
(PID.TID 0000.0001) %MON ad_dynstat_adsss_max         =   5.3479041621361E+07
(PID.TID 0000.0001) %MON ad_dynstat_adsss_min         =  -6.0323581998828E+07
(PID.TID 0000.0001) %MON ad_dynstat_adsss_mean        =  -9.4324570328119E+03
(PID.TID 0000.0001) %MON ad_dynstat_adsss_sd          =   1.0379262215040E+07
(PID.TID 0000.0001) %MON ad_dynstat_adsss_del2        =   2.2238647273001E+06
(PID.TID 0000.0001) // =======================================================
(PID.TID 0000.0001) // End AD_MONITOR dynamic field statistics
(PID.TID 0000.0001) // =======================================================
(PID.TID 0000.0001) // =======================================================
(PID.TID 0000.0001) // Begin AD_MONITOR SEAICE statistics
(PID.TID 0000.0001) // =======================================================
(PID.TID 0000.0001) %MON ad_seaice_tsnumber           =                     1
(PID.TID 0000.0001) %MON ad_seaice_time_sec           =   3.6000000000000E+03
(PID.TID 0000.0001) %MON ad_seaice_aduice_max         =   4.6516289250853E+13
(PID.TID 0000.0001) %MON ad_seaice_aduice_min         =  -5.4548289472250E+13
(PID.TID 0000.0001) %MON ad_seaice_aduice_mean        =   2.8057426754789E+09
(PID.TID 0000.0001) %MON ad_seaice_aduice_sd          =   9.2115990039893E+12
(PID.TID 0000.0001) %MON ad_seaice_aduice_del2        =   2.7034334397024E+12
(PID.TID 0000.0001) %MON ad_seaice_advice_max         =   3.5377402739902E+13
(PID.TID 0000.0001) %MON ad_seaice_advice_min         =  -1.7506257286488E+13
(PID.TID 0000.0001) %MON ad_seaice_advice_mean        =   6.5025004125986E+10
(PID.TID 0000.0001) %MON ad_seaice_advice_sd          =   4.9701414460818E+12
(PID.TID 0000.0001) %MON ad_seaice_advice_del2        =   1.5029105711139E+12
(PID.TID 0000.0001) %MON ad_seaice_adarea_max         =   4.7188320981511E+12
(PID.TID 0000.0001) %MON ad_seaice_adarea_min         =  -1.5298295264454E+13
(PID.TID 0000.0001) %MON ad_seaice_adarea_mean        =  -5.5116704010069E+09
(PID.TID 0000.0001) %MON ad_seaice_adarea_sd          =   1.6172135190947E+12
(PID.TID 0000.0001) %MON ad_seaice_adarea_del2        =   3.8269459089796E+11
(PID.TID 0000.0001) %MON ad_seaice_adheff_max         =   1.2049526425819E+12
(PID.TID 0000.0001) %MON ad_seaice_adheff_min         =  -3.0158195072198E+12
(PID.TID 0000.0001) %MON ad_seaice_adheff_mean        =   2.6989835028852E+10
(PID.TID 0000.0001) %MON ad_seaice_adheff_sd          =   3.7035685190491E+11
(PID.TID 0000.0001) %MON ad_seaice_adheff_del2        =   7.9607032684191E+10
(PID.TID 0000.0001) %MON ad_seaice_adhsnow_max        =   2.4299499433050E+10
(PID.TID 0000.0001) %MON ad_seaice_adhsnow_min        =  -1.1175074464985E+10
(PID.TID 0000.0001) %MON ad_seaice_adhsnow_mean       =   6.8600213489428E+08
(PID.TID 0000.0001) %MON ad_seaice_adhsnow_sd         =   4.0209410520238E+09
(PID.TID 0000.0001) %MON ad_seaice_adhsnow_del2       =   9.0558399637449E+08
(PID.TID 0000.0001) %MON ad_seaice_adhsalt_max        =   1.0564543389497E+02
(PID.TID 0000.0001) %MON ad_seaice_adhsalt_min        =  -4.3313471469427E+02
(PID.TID 0000.0001) %MON ad_seaice_adhsalt_mean       =  -2.3166490930823E-01
(PID.TID 0000.0001) %MON ad_seaice_adhsalt_sd         =   4.6403084538663E+01
(PID.TID 0000.0001) %MON ad_seaice_adhsalt_del2       =   1.3079236540404E+01
(PID.TID 0000.0001) // =======================================================
(PID.TID 0000.0001) // End AD_MONITOR SEAICE statistics
(PID.TID 0000.0001) // =======================================================
(PID.TID 0000.0001)  MDS_WRITE_FIELD: it,rec,kS,kL,kH=       1     1   1   1   1 file=ADJetan.0000000001
 Calling cg2d from S/R CG2D_MAD
 cg2d: Sum(rhs),rhsMax =   7.12998453680780E-16  1.88570019531533E+06
(PID.TID 0000.0001)       CG2D_MAD cg2d_init_res =   1.18489285789519E+00
(PID.TID 0000.0001)      CG2D_MAD: cg2d_iters(min,last) =      -1      46
(PID.TID 0000.0001)      CG2D_MAD: cg2d_last_res =   4.56705829752514E-14
(PID.TID 0000.0001)  MDS_WRITE_FIELD: it,rec,kS,kL,kH=       0     1   1   1   1 file=ADJtaux.0000000000
(PID.TID 0000.0001)  MDS_WRITE_FIELD: it,rec,kS,kL,kH=       0     1   1   1   1 file=ADJtauy.0000000000
(PID.TID 0000.0001)  MDS_WRITE_FIELD: it,rec,kS,kL,kH=       0     1   1   1   1 file=ADJqnet.0000000000
(PID.TID 0000.0001)  MDS_WRITE_FIELD: it,rec,kS,kL,kH=       0     1   1   1   1 file=ADJempr.0000000000
(PID.TID 0000.0001)  MDS_WRITE_FIELD: it,rec,kS,kL,kH=       0     1   1   1   1 file=ADJqsw.0000000000
(PID.TID 0000.0001) // =======================================================
(PID.TID 0000.0001) // Begin AD_MONITOR EXF statistics for iwhen =  3
(PID.TID 0000.0001) // =======================================================
(PID.TID 0000.0001) %MON ad_exf_tsnumber              =                     0
(PID.TID 0000.0001) %MON ad_exf_time_sec              =   0.0000000000000E+00
(PID.TID 0000.0001) %MON ad_exf_adfu_max              =   3.1886481623555E+10
(PID.TID 0000.0001) %MON ad_exf_adfu_min              =  -6.3856476289638E+10
(PID.TID 0000.0001) %MON ad_exf_adfu_mean             =   1.6758212533161E+08
(PID.TID 0000.0001) %MON ad_exf_adfu_sd               =   9.2740779889797E+09
(PID.TID 0000.0001) %MON ad_exf_adfu_del2             =   1.5246799414540E+09
(PID.TID 0000.0001) %MON ad_exf_adfv_max              =   2.7126948569202E+10
(PID.TID 0000.0001) %MON ad_exf_adfv_min              =  -3.2855906907213E+10
(PID.TID 0000.0001) %MON ad_exf_adfv_mean             =   8.6198676396405E+06
(PID.TID 0000.0001) %MON ad_exf_adfv_sd               =   6.2707255769648E+09
(PID.TID 0000.0001) %MON ad_exf_adfv_del2             =   1.2178447700531E+09
(PID.TID 0000.0001) %MON ad_exf_adqnet_max            =   6.3277404740319E+05
(PID.TID 0000.0001) %MON ad_exf_adqnet_min            =  -2.9385986855797E+05
(PID.TID 0000.0001) %MON ad_exf_adqnet_mean           =   1.7554599041212E+04
(PID.TID 0000.0001) %MON ad_exf_adqnet_sd             =   1.0353490491165E+05
(PID.TID 0000.0001) %MON ad_exf_adqnet_del2           =   2.3204693960039E+04
(PID.TID 0000.0001) %MON ad_exf_adempmr_max           =   6.5847268409559E+08
(PID.TID 0000.0001) %MON ad_exf_adempmr_min           =  -7.4217281342923E+08
(PID.TID 0000.0001) %MON ad_exf_adempmr_mean          =  -7.8216531152618E+05
(PID.TID 0000.0001) %MON ad_exf_adempmr_sd            =   1.2924126400715E+08
(PID.TID 0000.0001) %MON ad_exf_adempmr_del2          =   2.7466557517186E+07
(PID.TID 0000.0001) %MON ad_exf_adqsw_max             =   6.7686767379608E+04
(PID.TID 0000.0001) %MON ad_exf_adqsw_min             =  -1.4538051103321E+05
(PID.TID 0000.0001) %MON ad_exf_adqsw_mean            =  -4.0192901146984E+03
(PID.TID 0000.0001) %MON ad_exf_adqsw_sd              =   2.3706633605663E+04
(PID.TID 0000.0001) %MON ad_exf_adqsw_del2            =   5.2968538290106E+03
(PID.TID 0000.0001) // =======================================================
(PID.TID 0000.0001) // End AD_MONITOR EXF statistics for iwhen =  3
(PID.TID 0000.0001) // =======================================================
(PID.TID 0000.0001)  MDS_WRITE_FIELD: it,rec,kS,kL,kH=       0     1  23   1  23 file=ADJtheta.0000000000
(PID.TID 0000.0001)  MDS_WRITE_FIELD: it,rec,kS,kL,kH=       0     1  23   1  23 file=ADJsalt.0000000000
(PID.TID 0000.0001)  MDS_WRITE_FIELD: it,rec,kS,kL,kH=       0     1  23   1  23 file=ADJwvel.0000000000
(PID.TID 0000.0001)  MDS_WRITE_FIELD: it,rec,kS,kL,kH=       0     1  23   1  23 file=ADJuvel.0000000000
(PID.TID 0000.0001)  MDS_WRITE_FIELD: it,rec,kS,kL,kH=       0     1  23   1  23 file=ADJvvel.0000000000
(PID.TID 0000.0001)  MDS_WRITE_FIELD: it,rec,kS,kL,kH=       0     1   1   1   1 file=ADJarea.0000000000
(PID.TID 0000.0001)  MDS_WRITE_FIELD: it,rec,kS,kL,kH=       0     1   1   1   1 file=ADJheff.0000000000
(PID.TID 0000.0001)  MDS_WRITE_FIELD: it,rec,kS,kL,kH=       0     1   1   1   1 file=ADJhsnow.0000000000
(PID.TID 0000.0001)  MDS_WRITE_FIELD: it,rec,kS,kL,kH=       0     1   1   1   1 file=ADJuice.0000000000
(PID.TID 0000.0001)  MDS_WRITE_FIELD: it,rec,kS,kL,kH=       0     1   1   1   1 file=ADJvice.0000000000
(PID.TID 0000.0001)  MDS_WRITE_FIELD: it,rec,kS,kL,kH=       0     1   1   1   1 file=ADJustress.0000000000
(PID.TID 0000.0001)  MDS_WRITE_FIELD: it,rec,kS,kL,kH=       0     1   1   1   1 file=ADJvstress.0000000000
(PID.TID 0000.0001)  MDS_WRITE_FIELD: it,rec,kS,kL,kH=       0     1   1   1   1 file=ADJhflux.0000000000
(PID.TID 0000.0001)  MDS_WRITE_FIELD: it,rec,kS,kL,kH=       0     1   1   1   1 file=ADJsflux.0000000000
(PID.TID 0000.0001) // =======================================================
(PID.TID 0000.0001) // Begin AD_MONITOR EXF statistics for iwhen =  1
(PID.TID 0000.0001) // =======================================================
(PID.TID 0000.0001) %MON ad_exf_tsnumber              =                     0
(PID.TID 0000.0001) %MON ad_exf_time_sec              =   0.0000000000000E+00
(PID.TID 0000.0001) %MON ad_exf_adustress_max         =   0.0000000000000E+00
(PID.TID 0000.0001) %MON ad_exf_adustress_min         =   0.0000000000000E+00
(PID.TID 0000.0001) %MON ad_exf_adustress_mean        =   0.0000000000000E+00
(PID.TID 0000.0001) %MON ad_exf_adustress_sd          =   0.0000000000000E+00
(PID.TID 0000.0001) %MON ad_exf_adustress_del2        =   0.0000000000000E+00
(PID.TID 0000.0001) %MON ad_exf_advstress_max         =   0.0000000000000E+00
(PID.TID 0000.0001) %MON ad_exf_advstress_min         =   0.0000000000000E+00
(PID.TID 0000.0001) %MON ad_exf_advstress_mean        =   0.0000000000000E+00
(PID.TID 0000.0001) %MON ad_exf_advstress_sd          =   0.0000000000000E+00
(PID.TID 0000.0001) %MON ad_exf_advstress_del2        =   0.0000000000000E+00
(PID.TID 0000.0001) %MON ad_exf_adhflux_max           =   4.3366363483579E+02
(PID.TID 0000.0001) %MON ad_exf_adhflux_min           =  -6.8560765828640E+02
(PID.TID 0000.0001) %MON ad_exf_adhflux_mean          =   9.2130275730692E+00
(PID.TID 0000.0001) %MON ad_exf_adhflux_sd            =   1.0554613726953E+02
(PID.TID 0000.0001) %MON ad_exf_adhflux_del2          =   2.1887313494385E+01
(PID.TID 0000.0001) %MON ad_exf_adsflux_max           =   0.0000000000000E+00
(PID.TID 0000.0001) %MON ad_exf_adsflux_min           =   0.0000000000000E+00
(PID.TID 0000.0001) %MON ad_exf_adsflux_mean          =   0.0000000000000E+00
(PID.TID 0000.0001) %MON ad_exf_adsflux_sd            =   0.0000000000000E+00
(PID.TID 0000.0001) %MON ad_exf_adsflux_del2          =   0.0000000000000E+00
(PID.TID 0000.0001) %MON ad_exf_adswflux_max          =   4.3308874220879E+02
(PID.TID 0000.0001) %MON ad_exf_adswflux_min          =  -6.8497006423508E+02
(PID.TID 0000.0001) %MON ad_exf_adswflux_mean         =   9.2169265281583E+00
(PID.TID 0000.0001) %MON ad_exf_adswflux_sd           =   1.0547597541663E+02
(PID.TID 0000.0001) %MON ad_exf_adswflux_del2         =   2.1870862985407E+01
(PID.TID 0000.0001) %MON ad_exf_adwspeed_max          =   1.1123618464857E+07
(PID.TID 0000.0001) %MON ad_exf_adwspeed_min          =  -4.5626369771585E+07
(PID.TID 0000.0001) %MON ad_exf_adwspeed_mean         =  -3.9728193276155E+05
(PID.TID 0000.0001) %MON ad_exf_adwspeed_sd           =   4.3897050046727E+06
(PID.TID 0000.0001) %MON ad_exf_adwspeed_del2         =   1.0514424988561E+06
(PID.TID 0000.0001) // =======================================================
(PID.TID 0000.0001) // End AD_MONITOR EXF statistics for iwhen =  1
(PID.TID 0000.0001) // =======================================================
(PID.TID 0000.0001)  MDS_WRITE_FIELD: it,rec,kS,kL,kH=       0     1   1   1   1 file=ADJatemp.0000000000
(PID.TID 0000.0001)  MDS_WRITE_FIELD: it,rec,kS,kL,kH=       0     1   1   1   1 file=ADJaqh.0000000000
(PID.TID 0000.0001)  MDS_WRITE_FIELD: it,rec,kS,kL,kH=       0     1   1   1   1 file=ADJprecip.0000000000
(PID.TID 0000.0001)  MDS_WRITE_FIELD: it,rec,kS,kL,kH=       0     1   1   1   1 file=ADJrunoff.0000000000
(PID.TID 0000.0001)  MDS_WRITE_FIELD: it,rec,kS,kL,kH=       0     1   1   1   1 file=ADJuwind.0000000000
(PID.TID 0000.0001)  MDS_WRITE_FIELD: it,rec,kS,kL,kH=       0     1   1   1   1 file=ADJvwind.0000000000
(PID.TID 0000.0001)  MDS_WRITE_FIELD: it,rec,kS,kL,kH=       0     1   1   1   1 file=ADJswdown.0000000000
(PID.TID 0000.0001)  MDS_WRITE_FIELD: it,rec,kS,kL,kH=       0     1   1   1   1 file=ADJlwdown.0000000000
(PID.TID 0000.0001)  MDS_WRITE_FIELD: it,rec,kS,kL,kH=       0     1   1   1   1 file=ADJclimsst.0000000000
(PID.TID 0000.0001)  MDS_WRITE_FIELD: it,rec,kS,kL,kH=       0     1   1   1   1 file=ADJclimsss.0000000000
(PID.TID 0000.0001) // =======================================================
(PID.TID 0000.0001) // Begin AD_MONITOR EXF statistics for iwhen =  2
(PID.TID 0000.0001) // =======================================================
(PID.TID 0000.0001) %MON ad_exf_tsnumber              =                     0
(PID.TID 0000.0001) %MON ad_exf_time_sec              =   0.0000000000000E+00
(PID.TID 0000.0001) %MON ad_exf_aduwind_max           =   2.0263466170209E+09
(PID.TID 0000.0001) %MON ad_exf_aduwind_min           =  -2.9992716242655E+09
(PID.TID 0000.0001) %MON ad_exf_aduwind_mean          =  -1.3579839990590E+08
(PID.TID 0000.0001) %MON ad_exf_aduwind_sd            =   6.5969546074418E+08
(PID.TID 0000.0001) %MON ad_exf_aduwind_del2          =   1.1726288566384E+08
(PID.TID 0000.0001) %MON ad_exf_advwind_max           =   1.7217642356727E+09
(PID.TID 0000.0001) %MON ad_exf_advwind_min           =  -3.6113059204381E+08
(PID.TID 0000.0001) %MON ad_exf_advwind_mean          =   1.8776086571339E+08
(PID.TID 0000.0001) %MON ad_exf_advwind_sd            =   3.8413508355521E+08
(PID.TID 0000.0001) %MON ad_exf_advwind_del2          =   4.4362920186617E+07
(PID.TID 0000.0001) %MON ad_exf_adatemp_max           =   1.4342042360492E+07
(PID.TID 0000.0001) %MON ad_exf_adatemp_min           =  -6.4112704252636E+07
(PID.TID 0000.0001) %MON ad_exf_adatemp_mean          =  -6.7780709934595E+05
(PID.TID 0000.0001) %MON ad_exf_adatemp_sd            =   6.0910202274657E+06
(PID.TID 0000.0001) %MON ad_exf_adatemp_del2          =   1.4820153990350E+06
(PID.TID 0000.0001) %MON ad_exf_adaqh_max             =   4.0443132387697E+10
(PID.TID 0000.0001) %MON ad_exf_adaqh_min             =  -1.8079144661888E+11
(PID.TID 0000.0001) %MON ad_exf_adaqh_mean            =  -1.9112819370502E+09
(PID.TID 0000.0001) %MON ad_exf_adaqh_sd              =   1.7176052223357E+10
(PID.TID 0000.0001) %MON ad_exf_adaqh_del2            =   4.1791361963390E+09
(PID.TID 0000.0001) %MON ad_exf_adprecip_max          =   4.2526901203918E+15
(PID.TID 0000.0001) %MON ad_exf_adprecip_min          =  -1.0573814132761E+16
(PID.TID 0000.0001) %MON ad_exf_adprecip_mean         =  -9.5404575793575E+13
(PID.TID 0000.0001) %MON ad_exf_adprecip_sd           =   1.0689498545803E+15
(PID.TID 0000.0001) %MON ad_exf_adprecip_del2         =   2.8222671103734E+14
(PID.TID 0000.0001) %MON ad_exf_adlwdown_max          =   1.3198044126274E+06
(PID.TID 0000.0001) %MON ad_exf_adlwdown_min          =  -5.7994203557230E+06
(PID.TID 0000.0001) %MON ad_exf_adlwdown_mean         =  -5.5643599916146E+04
(PID.TID 0000.0001) %MON ad_exf_adlwdown_sd           =   5.5157456158312E+05
(PID.TID 0000.0001) %MON ad_exf_adlwdown_del2         =   1.3390336902246E+05
(PID.TID 0000.0001) %MON ad_exf_adswdown_max          =   2.2228284844251E+05
(PID.TID 0000.0001) %MON ad_exf_adswdown_min          =  -9.7674448096388E+05
(PID.TID 0000.0001) %MON ad_exf_adswdown_mean         =  -9.3783437588291E+03
(PID.TID 0000.0001) %MON ad_exf_adswdown_sd           =   9.2898713629380E+04
(PID.TID 0000.0001) %MON ad_exf_adswdown_del2         =   2.2552056701179E+04
(PID.TID 0000.0001) %MON ad_exf_adrunoff_max          =   7.3143568598629E+11
(PID.TID 0000.0001) %MON ad_exf_adrunoff_min          =  -6.6167123954124E+11
(PID.TID 0000.0001) %MON ad_exf_adrunoff_mean         =   7.8870208255702E+08
(PID.TID 0000.0001) %MON ad_exf_adrunoff_sd           =   1.3005047048056E+11
(PID.TID 0000.0001) %MON ad_exf_adrunoff_del2         =   2.7940284259152E+10
(PID.TID 0000.0001) // =======================================================
(PID.TID 0000.0001) // End AD_MONITOR EXF statistics for iwhen =  2
(PID.TID 0000.0001) // =======================================================
(PID.TID 0000.0001)  MDS_READ_FIELD: opening global file: adxx_atemp.effective.0000000001.data
(PID.TID 0000.0001)  MDS_WRITE_FIELD: it,rec,kS,kL,kH=       1    -2  23   1   1 file=adxx_atemp.effective.0000000001
(PID.TID 0000.0001)  MDS_READ_FIELD: opening global file: adxx_atemp.effective.0000000001.data
(PID.TID 0000.0001)  MDS_WRITE_FIELD: it,rec,kS,kL,kH=       1    -1  23   1   1 file=adxx_atemp.effective.0000000001
(PID.TID 0000.0001) S/R ADAUTODIFF_INADMODE_UNSET: useKPP    =    T
(PID.TID 0000.0001) S/R ADAUTODIFF_INADMODE_UNSET: useGMRedi =    T
(PID.TID 0000.0001) S/R ADAUTODIFF_INADMODE_UNSET: useSEAICE =    T
(PID.TID 0000.0001) S/R ADAUTODIFF_INADMODE_UNSET: useGGL90    =    F
(PID.TID 0000.0001) S/R ADAUTODIFF_INADMODE_UNSET: useSALT_PLUME    =    F
(PID.TID 0000.0001) S/R ADAUTODIFF_INADMODE_UNSET: viscFacAdj = 1.00000000000000E+00
(PID.TID 0000.0001)  MDS_READ_FIELD: opening global file: adm_sst_step.0000000001.data
(PID.TID 0000.0001)  MDS_WRITE_FIELD: it,rec,kS,kL,kH=       1    -1  23   1   1 file=adm_sst_step.0000000001
(PID.TID 0000.0001)  MDS_READ_FIELD: opening global file: LevCli_temp.labsea1979
(PID.TID 0000.0001)  MDS_READ_FIELD: opening global file: LevCli_salt.labsea1979
(PID.TID 0000.0001) Start initial hydrostatic pressure computation
(PID.TID 0000.0001) Pressure is predetermined for buoyancyRelation OCEANIC
(PID.TID 0000.0001) 
(PID.TID 0000.0001) // =======================================================
(PID.TID 0000.0001) // Begin AD_MONITOR dynamic field statistics
(PID.TID 0000.0001) // =======================================================
(PID.TID 0000.0001) %MON ad_time_tsnumber             =                     0
(PID.TID 0000.0001) %MON ad_time_secondsf             =   0.0000000000000E+00
(PID.TID 0000.0001) %MON ad_dynstat_adeta_max         =   1.4411802556365E+10
(PID.TID 0000.0001) %MON ad_dynstat_adeta_min         =  -1.0353335346770E+10
(PID.TID 0000.0001) %MON ad_dynstat_adeta_mean        =   4.3833089223136E+07
(PID.TID 0000.0001) %MON ad_dynstat_adeta_sd          =   2.8947078017147E+09
(PID.TID 0000.0001) %MON ad_dynstat_adeta_del2        =   5.5093491211041E+08
(PID.TID 0000.0001) %MON ad_dynstat_aduvel_max        =   7.8542333277182E+10
(PID.TID 0000.0001) %MON ad_dynstat_aduvel_min        =  -1.6003982071795E+11
(PID.TID 0000.0001) %MON ad_dynstat_aduvel_mean       =   1.6088502777504E+08
(PID.TID 0000.0001) %MON ad_dynstat_aduvel_sd         =   4.7999526062704E+09
(PID.TID 0000.0001) %MON ad_dynstat_aduvel_del2       =   3.9346480774739E+08
(PID.TID 0000.0001) %MON ad_dynstat_advvel_max        =   6.6212960558945E+10
(PID.TID 0000.0001) %MON ad_dynstat_advvel_min        =  -3.9344618921707E+10
(PID.TID 0000.0001) %MON ad_dynstat_advvel_mean       =   3.2556096106258E+08
(PID.TID 0000.0001) %MON ad_dynstat_advvel_sd         =   2.8998613902197E+09
(PID.TID 0000.0001) %MON ad_dynstat_advvel_del2       =   1.8383245171407E+08
(PID.TID 0000.0001) %MON ad_dynstat_adwvel_max        =   0.0000000000000E+00
(PID.TID 0000.0001) %MON ad_dynstat_adwvel_min        =   0.0000000000000E+00
(PID.TID 0000.0001) %MON ad_dynstat_adwvel_mean       =   0.0000000000000E+00
(PID.TID 0000.0001) %MON ad_dynstat_adwvel_sd         =   0.0000000000000E+00
(PID.TID 0000.0001) %MON ad_dynstat_adwvel_del2       =   0.0000000000000E+00
(PID.TID 0000.0001) %MON ad_dynstat_adtheta_max       =   2.8754119106728E+11
(PID.TID 0000.0001) %MON ad_dynstat_adtheta_min       =  -1.1321576691929E+11
(PID.TID 0000.0001) %MON ad_dynstat_adtheta_mean      =  -1.8057195435274E+07
(PID.TID 0000.0001) %MON ad_dynstat_adtheta_sd        =   2.8628783435955E+09
(PID.TID 0000.0001) %MON ad_dynstat_adtheta_del2      =   5.8447795823048E+08
(PID.TID 0000.0001) %MON ad_dynstat_adsalt_max        =   2.9490365516277E+11
(PID.TID 0000.0001) %MON ad_dynstat_adsalt_min        =  -2.9496832140749E+11
(PID.TID 0000.0001) %MON ad_dynstat_adsalt_mean       =   1.4080962347202E+06
(PID.TID 0000.0001) %MON ad_dynstat_adsalt_sd         =   3.5432705073192E+09
(PID.TID 0000.0001) %MON ad_dynstat_adsalt_del2       =   7.7790352819448E+08
(PID.TID 0000.0001) %MON ad_dynstat_adsst_max         =   2.8754119106728E+11
(PID.TID 0000.0001) %MON ad_dynstat_adsst_min         =  -1.1321576691929E+11
(PID.TID 0000.0001) %MON ad_dynstat_adsst_mean        =  -2.2825868006094E+09
(PID.TID 0000.0001) %MON ad_dynstat_adsst_sd          =   3.4411646298844E+10
(PID.TID 0000.0001) %MON ad_dynstat_adsst_del2        =   7.1659860876802E+09
(PID.TID 0000.0001) %MON ad_dynstat_adsss_max         =   4.8878802325998E+09
(PID.TID 0000.0001) %MON ad_dynstat_adsss_min         =  -2.9496832140749E+11
(PID.TID 0000.0001) %MON ad_dynstat_adsss_mean        =  -2.3495501509171E+09
(PID.TID 0000.0001) %MON ad_dynstat_adsss_sd          =   2.6227512518894E+10
(PID.TID 0000.0001) %MON ad_dynstat_adsss_del2        =   6.7821953150169E+09
(PID.TID 0000.0001) // =======================================================
(PID.TID 0000.0001) // End AD_MONITOR dynamic field statistics
(PID.TID 0000.0001) // =======================================================
(PID.TID 0000.0001) // =======================================================
(PID.TID 0000.0001) // Begin AD_MONITOR SEAICE statistics
(PID.TID 0000.0001) // =======================================================
(PID.TID 0000.0001) %MON ad_seaice_tsnumber           =                     0
(PID.TID 0000.0001) %MON ad_seaice_time_sec           =   0.0000000000000E+00
(PID.TID 0000.0001) %MON ad_seaice_aduice_max         =   2.2876489800684E+13
(PID.TID 0000.0001) %MON ad_seaice_aduice_min         =  -1.7728137216976E+13
(PID.TID 0000.0001) %MON ad_seaice_aduice_mean        =   7.0775590998143E+10
(PID.TID 0000.0001) %MON ad_seaice_aduice_sd          =   3.8623912643173E+12
(PID.TID 0000.0001) %MON ad_seaice_aduice_del2        =   1.1612057050348E+12
(PID.TID 0000.0001) %MON ad_seaice_advice_max         =   5.0858686654575E+12
(PID.TID 0000.0001) %MON ad_seaice_advice_min         =  -1.1376883489098E+13
(PID.TID 0000.0001) %MON ad_seaice_advice_mean        =  -1.1524921504981E+10
(PID.TID 0000.0001) %MON ad_seaice_advice_sd          =   1.6372430229473E+12
(PID.TID 0000.0001) %MON ad_seaice_advice_del2        =   4.8339700634050E+11
(PID.TID 0000.0001) %MON ad_seaice_adarea_max         =   4.0361366039299E+12
(PID.TID 0000.0001) %MON ad_seaice_adarea_min         =  -1.8310801855546E+12
(PID.TID 0000.0001) %MON ad_seaice_adarea_mean        =  -2.3809412284512E+10
(PID.TID 0000.0001) %MON ad_seaice_adarea_sd          =   5.0436021736621E+11
(PID.TID 0000.0001) %MON ad_seaice_adarea_del2        =   1.1693360330905E+11
(PID.TID 0000.0001) %MON ad_seaice_adheff_max         =   1.0689840623643E+12
(PID.TID 0000.0001) %MON ad_seaice_adheff_min         =  -2.7644843860353E+12
(PID.TID 0000.0001) %MON ad_seaice_adheff_mean        =   2.0778520140361E+10
(PID.TID 0000.0001) %MON ad_seaice_adheff_sd          =   3.3752787928302E+11
(PID.TID 0000.0001) %MON ad_seaice_adheff_del2        =   7.2416436160602E+10
(PID.TID 0000.0001) %MON ad_seaice_adhsnow_max        =   3.8991538602639E+11
(PID.TID 0000.0001) %MON ad_seaice_adhsnow_min        =  -9.6912536495661E+11
(PID.TID 0000.0001) %MON ad_seaice_adhsnow_mean       =   8.7803750748155E+09
(PID.TID 0000.0001) %MON ad_seaice_adhsnow_sd         =   1.1910818489926E+11
(PID.TID 0000.0001) %MON ad_seaice_adhsnow_del2       =   2.5622953916185E+10
(PID.TID 0000.0001) %MON ad_seaice_adhsalt_max        =   3.8731970091782E+03
(PID.TID 0000.0001) %MON ad_seaice_adhsalt_min        =  -5.2721553639301E+03
(PID.TID 0000.0001) %MON ad_seaice_adhsalt_mean       =  -1.3345401940502E+01
(PID.TID 0000.0001) %MON ad_seaice_adhsalt_sd         =   8.5419821022939E+02
(PID.TID 0000.0001) %MON ad_seaice_adhsalt_del2       =   1.7971056499820E+02
(PID.TID 0000.0001) // =======================================================
(PID.TID 0000.0001) // End AD_MONITOR SEAICE statistics
(PID.TID 0000.0001) // =======================================================
(PID.TID 0000.0001)  MDS_WRITE_FIELD: it,rec,kS,kL,kH=       0     1   1   1   1 file=ADJetan.0000000000
(PID.TID 0000.0001) CTRL_INIT_REC: Getting record indices for xx_atemp
(PID.TID 0000.0001) CTRL_INIT_REC: Record indices for xx_atemp:
(PID.TID 0000.0001) CTRL_INIT_REC: startrec =          1, endrec =         11
(PID.TID 0000.0001)  MDS_READ_FIELD: opening global file: xx_atemp.effective.0000000001.data
(PID.TID 0000.0001)  MDS_READ_FIELD: opening global file: ones_64b.bin
(PID.TID 0000.0001)  MDS_READ_FIELD: opening global file: adxx_atemp.effective.0000000001.data
(PID.TID 0000.0001)  MDS_WRITE_FIELD: it,rec,kS,kL,kH=       1   -11  23   1   1 file=adxx_atemp.effective.0000000001
(PID.TID 0000.0001)  MDS_READ_FIELD: opening global file: adxx_atemp.effective.0000000001.data
(PID.TID 0000.0001)  MDS_WRITE_FIELD: it,rec,kS,kL,kH=       1   -11  23   1   1 file=adxx_atemp.effective.0000000001
(PID.TID 0000.0001)  MDS_READ_FIELD: opening global file: xx_atemp.effective.0000000001.data
(PID.TID 0000.0001)  MDS_READ_FIELD: opening global file: ones_64b.bin
(PID.TID 0000.0001)  MDS_READ_FIELD: opening global file: adxx_atemp.effective.0000000001.data
(PID.TID 0000.0001)  MDS_WRITE_FIELD: it,rec,kS,kL,kH=       1   -10  23   1   1 file=adxx_atemp.effective.0000000001
(PID.TID 0000.0001)  MDS_READ_FIELD: opening global file: adxx_atemp.effective.0000000001.data
(PID.TID 0000.0001)  MDS_WRITE_FIELD: it,rec,kS,kL,kH=       1   -10  23   1   1 file=adxx_atemp.effective.0000000001
(PID.TID 0000.0001)  MDS_READ_FIELD: opening global file: xx_atemp.effective.0000000001.data
(PID.TID 0000.0001)  MDS_READ_FIELD: opening global file: ones_64b.bin
(PID.TID 0000.0001)  MDS_READ_FIELD: opening global file: adxx_atemp.effective.0000000001.data
(PID.TID 0000.0001)  MDS_WRITE_FIELD: it,rec,kS,kL,kH=       1    -9  23   1   1 file=adxx_atemp.effective.0000000001
(PID.TID 0000.0001)  MDS_READ_FIELD: opening global file: adxx_atemp.effective.0000000001.data
(PID.TID 0000.0001)  MDS_WRITE_FIELD: it,rec,kS,kL,kH=       1    -9  23   1   1 file=adxx_atemp.effective.0000000001
(PID.TID 0000.0001)  MDS_READ_FIELD: opening global file: xx_atemp.effective.0000000001.data
(PID.TID 0000.0001)  MDS_READ_FIELD: opening global file: ones_64b.bin
(PID.TID 0000.0001)  MDS_READ_FIELD: opening global file: adxx_atemp.effective.0000000001.data
(PID.TID 0000.0001)  MDS_WRITE_FIELD: it,rec,kS,kL,kH=       1    -8  23   1   1 file=adxx_atemp.effective.0000000001
(PID.TID 0000.0001)  MDS_READ_FIELD: opening global file: adxx_atemp.effective.0000000001.data
(PID.TID 0000.0001)  MDS_WRITE_FIELD: it,rec,kS,kL,kH=       1    -8  23   1   1 file=adxx_atemp.effective.0000000001
(PID.TID 0000.0001)  MDS_READ_FIELD: opening global file: xx_atemp.effective.0000000001.data
(PID.TID 0000.0001)  MDS_READ_FIELD: opening global file: ones_64b.bin
(PID.TID 0000.0001)  MDS_READ_FIELD: opening global file: adxx_atemp.effective.0000000001.data
(PID.TID 0000.0001)  MDS_WRITE_FIELD: it,rec,kS,kL,kH=       1    -7  23   1   1 file=adxx_atemp.effective.0000000001
(PID.TID 0000.0001)  MDS_READ_FIELD: opening global file: adxx_atemp.effective.0000000001.data
(PID.TID 0000.0001)  MDS_WRITE_FIELD: it,rec,kS,kL,kH=       1    -7  23   1   1 file=adxx_atemp.effective.0000000001
(PID.TID 0000.0001)  MDS_READ_FIELD: opening global file: xx_atemp.effective.0000000001.data
(PID.TID 0000.0001)  MDS_READ_FIELD: opening global file: ones_64b.bin
(PID.TID 0000.0001)  MDS_READ_FIELD: opening global file: adxx_atemp.effective.0000000001.data
(PID.TID 0000.0001)  MDS_WRITE_FIELD: it,rec,kS,kL,kH=       1    -6  23   1   1 file=adxx_atemp.effective.0000000001
(PID.TID 0000.0001)  MDS_READ_FIELD: opening global file: adxx_atemp.effective.0000000001.data
(PID.TID 0000.0001)  MDS_WRITE_FIELD: it,rec,kS,kL,kH=       1    -6  23   1   1 file=adxx_atemp.effective.0000000001
(PID.TID 0000.0001)  MDS_READ_FIELD: opening global file: xx_atemp.effective.0000000001.data
(PID.TID 0000.0001)  MDS_READ_FIELD: opening global file: ones_64b.bin
(PID.TID 0000.0001)  MDS_READ_FIELD: opening global file: adxx_atemp.effective.0000000001.data
(PID.TID 0000.0001)  MDS_WRITE_FIELD: it,rec,kS,kL,kH=       1    -5  23   1   1 file=adxx_atemp.effective.0000000001
(PID.TID 0000.0001)  MDS_READ_FIELD: opening global file: adxx_atemp.effective.0000000001.data
(PID.TID 0000.0001)  MDS_WRITE_FIELD: it,rec,kS,kL,kH=       1    -5  23   1   1 file=adxx_atemp.effective.0000000001
(PID.TID 0000.0001)  MDS_READ_FIELD: opening global file: xx_atemp.effective.0000000001.data
(PID.TID 0000.0001)  MDS_READ_FIELD: opening global file: ones_64b.bin
(PID.TID 0000.0001)  MDS_READ_FIELD: opening global file: adxx_atemp.effective.0000000001.data
(PID.TID 0000.0001)  MDS_WRITE_FIELD: it,rec,kS,kL,kH=       1    -4  23   1   1 file=adxx_atemp.effective.0000000001
(PID.TID 0000.0001)  MDS_READ_FIELD: opening global file: adxx_atemp.effective.0000000001.data
(PID.TID 0000.0001)  MDS_WRITE_FIELD: it,rec,kS,kL,kH=       1    -4  23   1   1 file=adxx_atemp.effective.0000000001
(PID.TID 0000.0001)  MDS_READ_FIELD: opening global file: xx_atemp.effective.0000000001.data
(PID.TID 0000.0001)  MDS_READ_FIELD: opening global file: ones_64b.bin
(PID.TID 0000.0001)  MDS_READ_FIELD: opening global file: adxx_atemp.effective.0000000001.data
(PID.TID 0000.0001)  MDS_WRITE_FIELD: it,rec,kS,kL,kH=       1    -3  23   1   1 file=adxx_atemp.effective.0000000001
(PID.TID 0000.0001)  MDS_READ_FIELD: opening global file: adxx_atemp.effective.0000000001.data
(PID.TID 0000.0001)  MDS_WRITE_FIELD: it,rec,kS,kL,kH=       1    -3  23   1   1 file=adxx_atemp.effective.0000000001
(PID.TID 0000.0001)  MDS_READ_FIELD: opening global file: xx_atemp.effective.0000000001.data
(PID.TID 0000.0001)  MDS_READ_FIELD: opening global file: ones_64b.bin
(PID.TID 0000.0001)  MDS_READ_FIELD: opening global file: adxx_atemp.effective.0000000001.data
(PID.TID 0000.0001)  MDS_WRITE_FIELD: it,rec,kS,kL,kH=       1    -2  23   1   1 file=adxx_atemp.effective.0000000001
(PID.TID 0000.0001)  MDS_READ_FIELD: opening global file: adxx_atemp.effective.0000000001.data
(PID.TID 0000.0001)  MDS_WRITE_FIELD: it,rec,kS,kL,kH=       1    -2  23   1   1 file=adxx_atemp.effective.0000000001
(PID.TID 0000.0001)  MDS_READ_FIELD: opening global file: xx_atemp.effective.0000000001.data
(PID.TID 0000.0001)  MDS_READ_FIELD: opening global file: ones_64b.bin
(PID.TID 0000.0001)  MDS_READ_FIELD: opening global file: adxx_atemp.effective.0000000001.data
(PID.TID 0000.0001)  MDS_WRITE_FIELD: it,rec,kS,kL,kH=       1    -1  23   1   1 file=adxx_atemp.effective.0000000001
(PID.TID 0000.0001)  MDS_READ_FIELD: opening global file: adxx_atemp.effective.0000000001.data
(PID.TID 0000.0001)  MDS_WRITE_FIELD: it,rec,kS,kL,kH=       1    -1  23   1   1 file=adxx_atemp.effective.0000000001
(PID.TID 0000.0001)  MDS_READ_FIELD: opening global file: adxx_atemp.effective.0000000001.data
(PID.TID 0000.0001)  MDS_WRITE_FIELD: it,rec,kS,kL,kH=       1   -11  23   1   1 file=adxx_atemp.effective.0000000001
(PID.TID 0000.0001)  MDS_READ_FIELD: opening global file: adxx_atemp.0000000001.data
(PID.TID 0000.0001)  MDS_WRITE_FIELD: it,rec,kS,kL,kH=       1   -11  23   1   1 file=adxx_atemp.0000000001
(PID.TID 0000.0001)  MDS_READ_FIELD: opening global file: adxx_atemp.effective.0000000001.data
(PID.TID 0000.0001)  MDS_WRITE_FIELD: it,rec,kS,kL,kH=       1   -10  23   1   1 file=adxx_atemp.effective.0000000001
(PID.TID 0000.0001)  MDS_READ_FIELD: opening global file: adxx_atemp.0000000001.data
(PID.TID 0000.0001)  MDS_WRITE_FIELD: it,rec,kS,kL,kH=       1   -10  23   1   1 file=adxx_atemp.0000000001
(PID.TID 0000.0001)  MDS_READ_FIELD: opening global file: adxx_atemp.effective.0000000001.data
(PID.TID 0000.0001)  MDS_WRITE_FIELD: it,rec,kS,kL,kH=       1    -9  23   1   1 file=adxx_atemp.effective.0000000001
(PID.TID 0000.0001)  MDS_READ_FIELD: opening global file: adxx_atemp.0000000001.data
(PID.TID 0000.0001)  MDS_WRITE_FIELD: it,rec,kS,kL,kH=       1    -9  23   1   1 file=adxx_atemp.0000000001
(PID.TID 0000.0001)  MDS_READ_FIELD: opening global file: adxx_atemp.effective.0000000001.data
(PID.TID 0000.0001)  MDS_WRITE_FIELD: it,rec,kS,kL,kH=       1    -8  23   1   1 file=adxx_atemp.effective.0000000001
(PID.TID 0000.0001)  MDS_READ_FIELD: opening global file: adxx_atemp.0000000001.data
(PID.TID 0000.0001)  MDS_WRITE_FIELD: it,rec,kS,kL,kH=       1    -8  23   1   1 file=adxx_atemp.0000000001
(PID.TID 0000.0001)  MDS_READ_FIELD: opening global file: adxx_atemp.effective.0000000001.data
(PID.TID 0000.0001)  MDS_WRITE_FIELD: it,rec,kS,kL,kH=       1    -7  23   1   1 file=adxx_atemp.effective.0000000001
(PID.TID 0000.0001)  MDS_READ_FIELD: opening global file: adxx_atemp.0000000001.data
(PID.TID 0000.0001)  MDS_WRITE_FIELD: it,rec,kS,kL,kH=       1    -7  23   1   1 file=adxx_atemp.0000000001
(PID.TID 0000.0001)  MDS_READ_FIELD: opening global file: adxx_atemp.effective.0000000001.data
(PID.TID 0000.0001)  MDS_WRITE_FIELD: it,rec,kS,kL,kH=       1    -6  23   1   1 file=adxx_atemp.effective.0000000001
(PID.TID 0000.0001)  MDS_READ_FIELD: opening global file: adxx_atemp.0000000001.data
(PID.TID 0000.0001)  MDS_WRITE_FIELD: it,rec,kS,kL,kH=       1    -6  23   1   1 file=adxx_atemp.0000000001
(PID.TID 0000.0001)  MDS_READ_FIELD: opening global file: adxx_atemp.effective.0000000001.data
(PID.TID 0000.0001)  MDS_WRITE_FIELD: it,rec,kS,kL,kH=       1    -5  23   1   1 file=adxx_atemp.effective.0000000001
(PID.TID 0000.0001)  MDS_READ_FIELD: opening global file: adxx_atemp.0000000001.data
(PID.TID 0000.0001)  MDS_WRITE_FIELD: it,rec,kS,kL,kH=       1    -5  23   1   1 file=adxx_atemp.0000000001
(PID.TID 0000.0001)  MDS_READ_FIELD: opening global file: adxx_atemp.effective.0000000001.data
(PID.TID 0000.0001)  MDS_WRITE_FIELD: it,rec,kS,kL,kH=       1    -4  23   1   1 file=adxx_atemp.effective.0000000001
(PID.TID 0000.0001)  MDS_READ_FIELD: opening global file: adxx_atemp.0000000001.data
(PID.TID 0000.0001)  MDS_WRITE_FIELD: it,rec,kS,kL,kH=       1    -4  23   1   1 file=adxx_atemp.0000000001
(PID.TID 0000.0001)  MDS_READ_FIELD: opening global file: adxx_atemp.effective.0000000001.data
(PID.TID 0000.0001)  MDS_WRITE_FIELD: it,rec,kS,kL,kH=       1    -3  23   1   1 file=adxx_atemp.effective.0000000001
(PID.TID 0000.0001)  MDS_READ_FIELD: opening global file: adxx_atemp.0000000001.data
(PID.TID 0000.0001)  MDS_WRITE_FIELD: it,rec,kS,kL,kH=       1    -3  23   1   1 file=adxx_atemp.0000000001
(PID.TID 0000.0001)  MDS_READ_FIELD: opening global file: adxx_atemp.effective.0000000001.data
(PID.TID 0000.0001)  MDS_WRITE_FIELD: it,rec,kS,kL,kH=       1    -2  23   1   1 file=adxx_atemp.effective.0000000001
(PID.TID 0000.0001)  MDS_READ_FIELD: opening global file: adxx_atemp.0000000001.data
(PID.TID 0000.0001)  MDS_WRITE_FIELD: it,rec,kS,kL,kH=       1    -2  23   1   1 file=adxx_atemp.0000000001
(PID.TID 0000.0001)  MDS_READ_FIELD: opening global file: adxx_atemp.effective.0000000001.data
(PID.TID 0000.0001)  MDS_WRITE_FIELD: it,rec,kS,kL,kH=       1    -1  23   1   1 file=adxx_atemp.effective.0000000001
(PID.TID 0000.0001)  MDS_READ_FIELD: opening global file: adxx_atemp.0000000001.data
(PID.TID 0000.0001)  MDS_WRITE_FIELD: it,rec,kS,kL,kH=       1    -1  23   1   1 file=adxx_atemp.0000000001
(PID.TID 0000.0001) // =======================================================
(PID.TID 0000.0001) // Gradient-check starts (grdchk_main)
(PID.TID 0000.0001) // =======================================================
(PID.TID 0000.0001) grdchk reference fc: fcref       =  5.27453128215446E+03
grad-res -------------------------------
 grad-res  proc    #    i    j    k   bi   bj iobc       fc ref            fc + eps           fc - eps
 grad-res  proc    #    i    j    k   bi   bj iobc      adj grad            fd grad          1 - fd/adj
 grad-res closest next position: 
 grad-res     0   75    4    8    1    1    1
(PID.TID 0000.0001) ====== Starts gradient-check number   1 (=ichknum) =======
 ph-test icomp, ncvarcomp, ichknum           75        1650           1
 ph-grd _loc: bi, bj, icomptest, ichknum            1           1           0           1
 ph-grd -->hit<--            6           8           1           1
(PID.TID 0000.0001) grdchk pos: i,j,k=    6    8    1 ; bi,bj=   1   1 ; iobc=  1 ; rec=   1
(PID.TID 0000.0001)  MDS_READ_FIELD: opening global file: adxx_atemp.0000000001.data
(PID.TID 0000.0001)  MDS_READ_FIELD: opening global file: xx_atemp.0000000001.data
(PID.TID 0000.0001)  MDS_WRITE_FIELD: it,rec,kS,kL,kH=       1     1   1   1   1 file=xx_atemp.0000000001
(PID.TID 0000.0001)  MDS_READ_FIELD: opening global file: LevCli_temp.labsea1979
(PID.TID 0000.0001)  MDS_READ_FIELD: opening global file: LevCli_salt.labsea1979
(PID.TID 0000.0001) Start initial hydrostatic pressure computation
(PID.TID 0000.0001) Pressure is predetermined for buoyancyRelation OCEANIC
(PID.TID 0000.0001) 
(PID.TID 0000.0001) CTRL_INIT_REC: Getting record indices for xx_atemp
(PID.TID 0000.0001) CTRL_INIT_REC: Record indices for xx_atemp:
(PID.TID 0000.0001) CTRL_INIT_REC: startrec =          1, endrec =         11
(PID.TID 0000.0001)  MDS_READ_FIELD: opening global file: xx_atemp.0000000001.data
(PID.TID 0000.0001)  MDS_WRITE_FIELD: it,rec,kS,kL,kH=       1     1   1   1   1 file=xx_atemp.effective.0000000001
(PID.TID 0000.0001)  MDS_READ_FIELD: opening global file: xx_atemp.0000000001.data
(PID.TID 0000.0001)  MDS_WRITE_FIELD: it,rec,kS,kL,kH=       1     2   1   1   1 file=xx_atemp.effective.0000000001
(PID.TID 0000.0001)  MDS_READ_FIELD: opening global file: xx_atemp.0000000001.data
(PID.TID 0000.0001)  MDS_WRITE_FIELD: it,rec,kS,kL,kH=       1     3   1   1   1 file=xx_atemp.effective.0000000001
(PID.TID 0000.0001)  MDS_READ_FIELD: opening global file: xx_atemp.0000000001.data
(PID.TID 0000.0001)  MDS_WRITE_FIELD: it,rec,kS,kL,kH=       1     4   1   1   1 file=xx_atemp.effective.0000000001
(PID.TID 0000.0001)  MDS_READ_FIELD: opening global file: xx_atemp.0000000001.data
(PID.TID 0000.0001)  MDS_WRITE_FIELD: it,rec,kS,kL,kH=       1     5   1   1   1 file=xx_atemp.effective.0000000001
(PID.TID 0000.0001)  MDS_READ_FIELD: opening global file: xx_atemp.0000000001.data
(PID.TID 0000.0001)  MDS_WRITE_FIELD: it,rec,kS,kL,kH=       1     6   1   1   1 file=xx_atemp.effective.0000000001
(PID.TID 0000.0001)  MDS_READ_FIELD: opening global file: xx_atemp.0000000001.data
(PID.TID 0000.0001)  MDS_WRITE_FIELD: it,rec,kS,kL,kH=       1     7   1   1   1 file=xx_atemp.effective.0000000001
(PID.TID 0000.0001)  MDS_READ_FIELD: opening global file: xx_atemp.0000000001.data
(PID.TID 0000.0001)  MDS_WRITE_FIELD: it,rec,kS,kL,kH=       1     8   1   1   1 file=xx_atemp.effective.0000000001
(PID.TID 0000.0001)  MDS_READ_FIELD: opening global file: xx_atemp.0000000001.data
(PID.TID 0000.0001)  MDS_WRITE_FIELD: it,rec,kS,kL,kH=       1     9   1   1   1 file=xx_atemp.effective.0000000001
(PID.TID 0000.0001)  MDS_READ_FIELD: opening global file: xx_atemp.0000000001.data
(PID.TID 0000.0001)  MDS_WRITE_FIELD: it,rec,kS,kL,kH=       1    10   1   1   1 file=xx_atemp.effective.0000000001
(PID.TID 0000.0001)  MDS_READ_FIELD: opening global file: xx_atemp.0000000001.data
(PID.TID 0000.0001)  MDS_WRITE_FIELD: it,rec,kS,kL,kH=       1    11   1   1   1 file=xx_atemp.effective.0000000001
(PID.TID 0000.0001)  MDS_READ_FIELD: opening global file: xx_atemp.effective.0000000001.data
(PID.TID 0000.0001)  MDS_READ_FIELD: opening global file: ones_64b.bin
(PID.TID 0000.0001)  MDS_WRITE_FIELD: it,rec,kS,kL,kH=       1     1   1   1   1 file=xx_atemp.effective.0000000001
(PID.TID 0000.0001)  MDS_READ_FIELD: opening global file: xx_atemp.effective.0000000001.data
(PID.TID 0000.0001)  MDS_READ_FIELD: opening global file: ones_64b.bin
(PID.TID 0000.0001)  MDS_WRITE_FIELD: it,rec,kS,kL,kH=       1     2   1   1   1 file=xx_atemp.effective.0000000001
(PID.TID 0000.0001)  MDS_READ_FIELD: opening global file: xx_atemp.effective.0000000001.data
(PID.TID 0000.0001)  MDS_READ_FIELD: opening global file: ones_64b.bin
(PID.TID 0000.0001)  MDS_WRITE_FIELD: it,rec,kS,kL,kH=       1     3   1   1   1 file=xx_atemp.effective.0000000001
(PID.TID 0000.0001)  MDS_READ_FIELD: opening global file: xx_atemp.effective.0000000001.data
(PID.TID 0000.0001)  MDS_READ_FIELD: opening global file: ones_64b.bin
(PID.TID 0000.0001)  MDS_WRITE_FIELD: it,rec,kS,kL,kH=       1     4   1   1   1 file=xx_atemp.effective.0000000001
(PID.TID 0000.0001)  MDS_READ_FIELD: opening global file: xx_atemp.effective.0000000001.data
(PID.TID 0000.0001)  MDS_READ_FIELD: opening global file: ones_64b.bin
(PID.TID 0000.0001)  MDS_WRITE_FIELD: it,rec,kS,kL,kH=       1     5   1   1   1 file=xx_atemp.effective.0000000001
(PID.TID 0000.0001)  MDS_READ_FIELD: opening global file: xx_atemp.effective.0000000001.data
(PID.TID 0000.0001)  MDS_READ_FIELD: opening global file: ones_64b.bin
(PID.TID 0000.0001)  MDS_WRITE_FIELD: it,rec,kS,kL,kH=       1     6   1   1   1 file=xx_atemp.effective.0000000001
(PID.TID 0000.0001)  MDS_READ_FIELD: opening global file: xx_atemp.effective.0000000001.data
(PID.TID 0000.0001)  MDS_READ_FIELD: opening global file: ones_64b.bin
(PID.TID 0000.0001)  MDS_WRITE_FIELD: it,rec,kS,kL,kH=       1     7   1   1   1 file=xx_atemp.effective.0000000001
(PID.TID 0000.0001)  MDS_READ_FIELD: opening global file: xx_atemp.effective.0000000001.data
(PID.TID 0000.0001)  MDS_READ_FIELD: opening global file: ones_64b.bin
(PID.TID 0000.0001)  MDS_WRITE_FIELD: it,rec,kS,kL,kH=       1     8   1   1   1 file=xx_atemp.effective.0000000001
(PID.TID 0000.0001)  MDS_READ_FIELD: opening global file: xx_atemp.effective.0000000001.data
(PID.TID 0000.0001)  MDS_READ_FIELD: opening global file: ones_64b.bin
(PID.TID 0000.0001)  MDS_WRITE_FIELD: it,rec,kS,kL,kH=       1     9   1   1   1 file=xx_atemp.effective.0000000001
(PID.TID 0000.0001)  MDS_READ_FIELD: opening global file: xx_atemp.effective.0000000001.data
(PID.TID 0000.0001)  MDS_READ_FIELD: opening global file: ones_64b.bin
(PID.TID 0000.0001)  MDS_WRITE_FIELD: it,rec,kS,kL,kH=       1    10   1   1   1 file=xx_atemp.effective.0000000001
(PID.TID 0000.0001)  MDS_READ_FIELD: opening global file: xx_atemp.effective.0000000001.data
(PID.TID 0000.0001)  MDS_READ_FIELD: opening global file: ones_64b.bin
(PID.TID 0000.0001)  MDS_WRITE_FIELD: it,rec,kS,kL,kH=       1    11   1   1   1 file=xx_atemp.effective.0000000001
(PID.TID 0000.0001) // =======================================================
(PID.TID 0000.0001) // Model current state
(PID.TID 0000.0001) // =======================================================
(PID.TID 0000.0001) 
(PID.TID 0000.0001)  MDS_WRITE_FIELD: it,rec,kS,kL,kH=       1     1   1   1   1 file=m_sst_step.0000000001
(PID.TID 0000.0001)  MDS_READ_FIELD: opening global file: xx_atemp.effective.0000000001.data
(PID.TID 0000.0001)  MDS_READ_FIELD: opening global file: xx_atemp.effective.0000000001.data
(PID.TID 0000.0001) EXF_SET_FLD: processing field "climsss",  file: SSS_monthly.labsea1979
(PID.TID 0000.0001) EXF_SET_FLD:   myIter, count0, count1:         0      1      2
(PID.TID 0000.0001) EXF_SET_FLD:   first, changed, fac:   T   F    0.50000000000000000
(PID.TID 0000.0001) EXF_SET_FLD: field "climsss", it=         0, loading rec=     1
(PID.TID 0000.0001) EXF_SET_FLD:   from file: "SSS_monthly.labsea1979"
(PID.TID 0000.0001)  MDS_READ_FIELD: opening global file: SSS_monthly.labsea1979
(PID.TID 0000.0001) EXF_SET_FLD: field "climsss", it=         0, loading rec=     2
(PID.TID 0000.0001) EXF_SET_FLD:   from file: "SSS_monthly.labsea1979"
(PID.TID 0000.0001)  MDS_READ_FIELD: opening global file: SSS_monthly.labsea1979
(PID.TID 0000.0001) EXF_SET_FLD: processing field "uwind",  file: u10m.labsea1979
(PID.TID 0000.0001) EXF_SET_FLD:   myIter, count0, count1:         0      1      2
(PID.TID 0000.0001) EXF_SET_FLD:   first, changed, fac:   T   F    0.50000000000000000
(PID.TID 0000.0001) EXF_SET_FLD: field "uwind", it=         0, loading rec=     1
(PID.TID 0000.0001) EXF_SET_FLD:   from file: "u10m.labsea1979"
(PID.TID 0000.0001)  MDS_READ_FIELD: opening global file: u10m.labsea1979
(PID.TID 0000.0001) EXF_SET_FLD: field "uwind", it=         0, loading rec=     2
(PID.TID 0000.0001) EXF_SET_FLD:   from file: "u10m.labsea1979"
(PID.TID 0000.0001)  MDS_READ_FIELD: opening global file: u10m.labsea1979
(PID.TID 0000.0001) EXF_SET_FLD: processing field "vwind",  file: v10m.labsea1979
(PID.TID 0000.0001) EXF_SET_FLD:   myIter, count0, count1:         0      1      2
(PID.TID 0000.0001) EXF_SET_FLD:   first, changed, fac:   T   F    0.50000000000000000
(PID.TID 0000.0001) EXF_SET_FLD: field "vwind", it=         0, loading rec=     1
(PID.TID 0000.0001) EXF_SET_FLD:   from file: "v10m.labsea1979"
(PID.TID 0000.0001)  MDS_READ_FIELD: opening global file: v10m.labsea1979
(PID.TID 0000.0001) EXF_SET_FLD: field "vwind", it=         0, loading rec=     2
(PID.TID 0000.0001) EXF_SET_FLD:   from file: "v10m.labsea1979"
(PID.TID 0000.0001)  MDS_READ_FIELD: opening global file: v10m.labsea1979
(PID.TID 0000.0001) EXF_SET_FLD: processing field "atemp",  file: tair.labsea1979
(PID.TID 0000.0001) EXF_SET_FLD:   myIter, count0, count1:         0      1      2
(PID.TID 0000.0001) EXF_SET_FLD:   first, changed, fac:   T   F    0.50000000000000000
(PID.TID 0000.0001) EXF_SET_FLD: field "atemp", it=         0, loading rec=     1
(PID.TID 0000.0001) EXF_SET_FLD:   from file: "tair.labsea1979"
(PID.TID 0000.0001)  MDS_READ_FIELD: opening global file: tair.labsea1979
(PID.TID 0000.0001) EXF_SET_FLD: field "atemp", it=         0, loading rec=     2
(PID.TID 0000.0001) EXF_SET_FLD:   from file: "tair.labsea1979"
(PID.TID 0000.0001)  MDS_READ_FIELD: opening global file: tair.labsea1979
(PID.TID 0000.0001) EXF_SET_FLD: processing field "aqh",  file: qa.labsea1979
(PID.TID 0000.0001) EXF_SET_FLD:   myIter, count0, count1:         0      1      2
(PID.TID 0000.0001) EXF_SET_FLD:   first, changed, fac:   T   F    0.50000000000000000
(PID.TID 0000.0001) EXF_SET_FLD: field "aqh", it=         0, loading rec=     1
(PID.TID 0000.0001) EXF_SET_FLD:   from file: "qa.labsea1979"
(PID.TID 0000.0001)  MDS_READ_FIELD: opening global file: qa.labsea1979
(PID.TID 0000.0001) EXF_SET_FLD: field "aqh", it=         0, loading rec=     2
(PID.TID 0000.0001) EXF_SET_FLD:   from file: "qa.labsea1979"
(PID.TID 0000.0001)  MDS_READ_FIELD: opening global file: qa.labsea1979
(PID.TID 0000.0001) EXF_SET_FLD: processing field "precip",  file: prate.labsea1979
(PID.TID 0000.0001) EXF_SET_FLD:   myIter, count0, count1:         0      1      2
(PID.TID 0000.0001) EXF_SET_FLD:   first, changed, fac:   T   F    0.50000000000000000
(PID.TID 0000.0001) EXF_SET_FLD: field "precip", it=         0, loading rec=     1
(PID.TID 0000.0001) EXF_SET_FLD:   from file: "prate.labsea1979"
(PID.TID 0000.0001)  MDS_READ_FIELD: opening global file: prate.labsea1979
(PID.TID 0000.0001) EXF_SET_FLD: field "precip", it=         0, loading rec=     2
(PID.TID 0000.0001) EXF_SET_FLD:   from file: "prate.labsea1979"
(PID.TID 0000.0001)  MDS_READ_FIELD: opening global file: prate.labsea1979
(PID.TID 0000.0001) EXF_SET_FLD: processing field "swdown",  file: fsh.labsea1979
(PID.TID 0000.0001) EXF_SET_FLD:   myIter, count0, count1:         0      1      2
(PID.TID 0000.0001) EXF_SET_FLD:   first, changed, fac:   T   F    0.50000000000000000
(PID.TID 0000.0001) EXF_SET_FLD: field "swdown", it=         0, loading rec=     1
(PID.TID 0000.0001) EXF_SET_FLD:   from file: "fsh.labsea1979"
(PID.TID 0000.0001)  MDS_READ_FIELD: opening global file: fsh.labsea1979
(PID.TID 0000.0001) EXF_SET_FLD: field "swdown", it=         0, loading rec=     2
(PID.TID 0000.0001) EXF_SET_FLD:   from file: "fsh.labsea1979"
(PID.TID 0000.0001)  MDS_READ_FIELD: opening global file: fsh.labsea1979
(PID.TID 0000.0001) EXF_SET_FLD: processing field "lwdown",  file: flo.labsea1979
(PID.TID 0000.0001) EXF_SET_FLD:   myIter, count0, count1:         0      1      2
(PID.TID 0000.0001) EXF_SET_FLD:   first, changed, fac:   T   F    0.50000000000000000
(PID.TID 0000.0001) EXF_SET_FLD: field "lwdown", it=         0, loading rec=     1
(PID.TID 0000.0001) EXF_SET_FLD:   from file: "flo.labsea1979"
(PID.TID 0000.0001)  MDS_READ_FIELD: opening global file: flo.labsea1979
(PID.TID 0000.0001) EXF_SET_FLD: field "lwdown", it=         0, loading rec=     2
(PID.TID 0000.0001) EXF_SET_FLD:   from file: "flo.labsea1979"
(PID.TID 0000.0001)  MDS_READ_FIELD: opening global file: flo.labsea1979
DEBUG_STATS_RL: Uice pre  iter (SEAICE_LSR  1)  min=  0.00000000000000E+00
DEBUG_STATS_RL: Uice pre  iter (SEAICE_LSR  1)  max=  0.00000000000000E+00
DEBUG_STATS_RL: Uice pre  iter (SEAICE_LSR  1) mean=  0.00000000000000E+00
DEBUG_STATS_RL: Uice pre  iter (SEAICE_LSR  1) S.D.=  0.00000000000000E+00
DEBUG_STATS_RL: Vice pre  iter (SEAICE_LSR  1)  min=  0.00000000000000E+00
DEBUG_STATS_RL: Vice pre  iter (SEAICE_LSR  1)  max=  0.00000000000000E+00
DEBUG_STATS_RL: Vice pre  iter (SEAICE_LSR  1) mean=  0.00000000000000E+00
DEBUG_STATS_RL: Vice pre  iter (SEAICE_LSR  1) S.D.=  0.00000000000000E+00
DEBUG_STATS_RL: Uice pre  iter (SEAICE_LSR  2)  min= -4.74478293331770E-04
DEBUG_STATS_RL: Uice pre  iter (SEAICE_LSR  2)  max=  5.19863184318560E-03
DEBUG_STATS_RL: Uice pre  iter (SEAICE_LSR  2) mean=  1.15969103043184E-03
DEBUG_STATS_RL: Uice pre  iter (SEAICE_LSR  2) S.D.=  1.37050304765703E-03
DEBUG_STATS_RL: Vice pre  iter (SEAICE_LSR  2)  min= -2.82028703630720E-03
DEBUG_STATS_RL: Vice pre  iter (SEAICE_LSR  2)  max=  8.55909305417855E-04
DEBUG_STATS_RL: Vice pre  iter (SEAICE_LSR  2) mean= -7.32602707228794E-04
DEBUG_STATS_RL: Vice pre  iter (SEAICE_LSR  2) S.D.=  9.65742386214621E-04
DEBUG_STATS_RL:                EtaN (DYNAMICS)  min=  0.00000000000000E+00
DEBUG_STATS_RL:                EtaN (DYNAMICS)  max=  0.00000000000000E+00
DEBUG_STATS_RL:                EtaN (DYNAMICS) mean=  0.00000000000000E+00
DEBUG_STATS_RL:                EtaN (DYNAMICS) S.D.=  0.00000000000000E+00
DEBUG_STATS_RL:                Uvel (DYNAMICS)  min=  0.00000000000000E+00
DEBUG_STATS_RL:                Uvel (DYNAMICS)  max=  0.00000000000000E+00
DEBUG_STATS_RL:                Uvel (DYNAMICS) mean=  0.00000000000000E+00
DEBUG_STATS_RL:                Uvel (DYNAMICS) S.D.=  0.00000000000000E+00
DEBUG_STATS_RL:                Vvel (DYNAMICS)  min=  0.00000000000000E+00
DEBUG_STATS_RL:                Vvel (DYNAMICS)  max=  0.00000000000000E+00
DEBUG_STATS_RL:                Vvel (DYNAMICS) mean=  0.00000000000000E+00
DEBUG_STATS_RL:                Vvel (DYNAMICS) S.D.=  0.00000000000000E+00
DEBUG_STATS_RL:                Wvel (DYNAMICS)  min=  0.00000000000000E+00
DEBUG_STATS_RL:                Wvel (DYNAMICS)  max=  0.00000000000000E+00
DEBUG_STATS_RL:                Wvel (DYNAMICS) mean=  0.00000000000000E+00
DEBUG_STATS_RL:                Wvel (DYNAMICS) S.D.=  0.00000000000000E+00
DEBUG_STATS_RL:               Theta (DYNAMICS)  min= -1.41036188602448E+00
DEBUG_STATS_RL:               Theta (DYNAMICS)  max=  1.33330764770508E+01
DEBUG_STATS_RL:               Theta (DYNAMICS) mean=  2.90475522269124E+00
DEBUG_STATS_RL:               Theta (DYNAMICS) S.D.=  2.44037465259698E+00
DEBUG_STATS_RL:                Salt (DYNAMICS)  min=  3.01286983489990E+01
DEBUG_STATS_RL:                Salt (DYNAMICS)  max=  3.54506225585938E+01
DEBUG_STATS_RL:                Salt (DYNAMICS) mean=  3.40845304745500E+01
DEBUG_STATS_RL:                Salt (DYNAMICS) S.D.=  9.00924836964808E-01
DEBUG_STATS_RL:                  Gu (DYNAMICS)  min= -2.00599447531986E-02
DEBUG_STATS_RL:                  Gu (DYNAMICS)  max=  1.04076999541495E-02
DEBUG_STATS_RL:                  Gu (DYNAMICS) mean= -2.58939542765896E-03
DEBUG_STATS_RL:                  Gu (DYNAMICS) S.D.=  4.84472279217175E-03
DEBUG_STATS_RL:                  Gv (DYNAMICS)  min= -2.97181268783620E-02
DEBUG_STATS_RL:                  Gv (DYNAMICS)  max=  1.05795727308992E-02
DEBUG_STATS_RL:                  Gv (DYNAMICS) mean= -1.51075895161939E-03
DEBUG_STATS_RL:                  Gv (DYNAMICS) S.D.=  5.23505354600419E-03
DEBUG_STATS_RL:               GuNm1 (DYNAMICS)  min=  0.00000000000000E+00
DEBUG_STATS_RL:               GuNm1 (DYNAMICS)  max=  0.00000000000000E+00
DEBUG_STATS_RL:               GuNm1 (DYNAMICS) mean=  0.00000000000000E+00
DEBUG_STATS_RL:               GuNm1 (DYNAMICS) S.D.=  0.00000000000000E+00
DEBUG_STATS_RL:               GvNm1 (DYNAMICS)  min=  0.00000000000000E+00
DEBUG_STATS_RL:               GvNm1 (DYNAMICS)  max=  0.00000000000000E+00
DEBUG_STATS_RL:               GvNm1 (DYNAMICS) mean=  0.00000000000000E+00
DEBUG_STATS_RL:               GvNm1 (DYNAMICS) S.D.=  0.00000000000000E+00
DEBUG_STATS_RL:               GtNm1 (DYNAMICS)  min=  0.00000000000000E+00
DEBUG_STATS_RL:               GtNm1 (DYNAMICS)  max=  0.00000000000000E+00
DEBUG_STATS_RL:               GtNm1 (DYNAMICS) mean=  0.00000000000000E+00
DEBUG_STATS_RL:               GtNm1 (DYNAMICS) S.D.=  0.00000000000000E+00
DEBUG_STATS_RL:               GsNm1 (DYNAMICS)  min=  0.00000000000000E+00
DEBUG_STATS_RL:               GsNm1 (DYNAMICS)  max=  0.00000000000000E+00
DEBUG_STATS_RL:               GsNm1 (DYNAMICS) mean=  0.00000000000000E+00
DEBUG_STATS_RL:               GsNm1 (DYNAMICS) S.D.=  0.00000000000000E+00
(PID.TID 0000.0001) SOLVE_FOR_PRESSURE: putPmEinXvector =    F
DEBUG_STATS_RL:    cg2d_b (SOLVE_FOR_PRESSURE)  min= -6.15797366908278E+03
DEBUG_STATS_RL:    cg2d_b (SOLVE_FOR_PRESSURE)  max=  2.03762696322118E+03
DEBUG_STATS_RL:    cg2d_b (SOLVE_FOR_PRESSURE) mean=  2.40637139844087E-14
DEBUG_STATS_RL:    cg2d_b (SOLVE_FOR_PRESSURE) S.D.=  8.03730450548215E+02
 cg2d: Sum(rhs),rhsMax =   7.91033905045424E-16  9.91122157459750E-01
DEBUG_STATS_RL:    cg2d_x (SOLVE_FOR_PRESSURE)  min= -7.77200124675132E-01
DEBUG_STATS_RL:    cg2d_x (SOLVE_FOR_PRESSURE)  max=  2.02552651121663E+00
DEBUG_STATS_RL:    cg2d_x (SOLVE_FOR_PRESSURE) mean= -8.58037095103906E-03
DEBUG_STATS_RL:    cg2d_x (SOLVE_FOR_PRESSURE) S.D.=  4.14863218307968E-01
DEBUG_STATS_RL:          Uvel (THERMODYNAMICS)  min= -1.97613285723242E-02
DEBUG_STATS_RL:          Uvel (THERMODYNAMICS)  max=  1.31897193240012E-02
DEBUG_STATS_RL:          Uvel (THERMODYNAMICS) mean= -7.76915115649382E-04
DEBUG_STATS_RL:          Uvel (THERMODYNAMICS) S.D.=  3.97168834923499E-03
DEBUG_STATS_RL:          Vvel (THERMODYNAMICS)  min= -1.13773235335529E-02
DEBUG_STATS_RL:          Vvel (THERMODYNAMICS)  max=  2.04284639774261E-02
DEBUG_STATS_RL:          Vvel (THERMODYNAMICS) mean=  7.24190880687442E-04
DEBUG_STATS_RL:          Vvel (THERMODYNAMICS) S.D.=  4.28907995073846E-03
DEBUG_STATS_RL:          Wvel (THERMODYNAMICS)  min= -4.27131465138430E-05
DEBUG_STATS_RL:          Wvel (THERMODYNAMICS)  max=  1.16530364658749E-04
DEBUG_STATS_RL:          Wvel (THERMODYNAMICS) mean= -4.07763417598552E-07
DEBUG_STATS_RL:          Wvel (THERMODYNAMICS) S.D.=  1.80149904412009E-05
DEBUG_STATS_RL:         Theta (THERMODYNAMICS)  min= -1.41019615972461E+00
DEBUG_STATS_RL:         Theta (THERMODYNAMICS)  max=  1.32440592110212E+01
DEBUG_STATS_RL:         Theta (THERMODYNAMICS) mean=  2.49735783552472E+00
DEBUG_STATS_RL:         Theta (THERMODYNAMICS) S.D.=  2.45807980529386E+00
DEBUG_STATS_RL:          Salt (THERMODYNAMICS)  min=  2.76560994014067E+01
DEBUG_STATS_RL:          Salt (THERMODYNAMICS)  max=  3.54507778736995E+01
DEBUG_STATS_RL:          Salt (THERMODYNAMICS) mean=  3.39623217189226E+01
DEBUG_STATS_RL:          Salt (THERMODYNAMICS) S.D.=  1.10108958710694E+00
DEBUG_STATS_RL:         GtNm1 (THERMODYNAMICS)  min=  0.00000000000000E+00
DEBUG_STATS_RL:         GtNm1 (THERMODYNAMICS)  max=  0.00000000000000E+00
DEBUG_STATS_RL:         GtNm1 (THERMODYNAMICS) mean=  0.00000000000000E+00
DEBUG_STATS_RL:         GtNm1 (THERMODYNAMICS) S.D.=  0.00000000000000E+00
DEBUG_STATS_RL:         GsNm1 (THERMODYNAMICS)  min=  0.00000000000000E+00
DEBUG_STATS_RL:         GsNm1 (THERMODYNAMICS)  max=  0.00000000000000E+00
DEBUG_STATS_RL:         GsNm1 (THERMODYNAMICS) mean=  0.00000000000000E+00
DEBUG_STATS_RL:         GsNm1 (THERMODYNAMICS) S.D.=  0.00000000000000E+00
(PID.TID 0000.0001)  MDS_WRITE_FIELD: it,rec,kS,kL,kH=       1     2   1   1   1 file=m_sst_step.0000000001
(PID.TID 0000.0001)  MDS_READ_FIELD: opening global file: xx_atemp.effective.0000000001.data
(PID.TID 0000.0001) EXF_SET_FLD: processing field "climsss",  file: SSS_monthly.labsea1979
(PID.TID 0000.0001) EXF_SET_FLD:   myIter, count0, count1:         1      1      2
(PID.TID 0000.0001) EXF_SET_FLD:   first, changed, fac:   F   F    0.49863387978142082
(PID.TID 0000.0001) EXF_SET_FLD: processing field "uwind",  file: u10m.labsea1979
(PID.TID 0000.0001) EXF_SET_FLD:   myIter, count0, count1:         1      1      2
(PID.TID 0000.0001) EXF_SET_FLD:   first, changed, fac:   F   F    0.49863387978142082
(PID.TID 0000.0001) EXF_SET_FLD: processing field "vwind",  file: v10m.labsea1979
(PID.TID 0000.0001) EXF_SET_FLD:   myIter, count0, count1:         1      1      2
(PID.TID 0000.0001) EXF_SET_FLD:   first, changed, fac:   F   F    0.49863387978142082
(PID.TID 0000.0001) EXF_SET_FLD: processing field "atemp",  file: tair.labsea1979
(PID.TID 0000.0001) EXF_SET_FLD:   myIter, count0, count1:         1      1      2
(PID.TID 0000.0001) EXF_SET_FLD:   first, changed, fac:   F   F    0.49863387978142082
(PID.TID 0000.0001) EXF_SET_FLD: processing field "aqh",  file: qa.labsea1979
(PID.TID 0000.0001) EXF_SET_FLD:   myIter, count0, count1:         1      1      2
(PID.TID 0000.0001) EXF_SET_FLD:   first, changed, fac:   F   F    0.49863387978142082
(PID.TID 0000.0001) EXF_SET_FLD: processing field "precip",  file: prate.labsea1979
(PID.TID 0000.0001) EXF_SET_FLD:   myIter, count0, count1:         1      1      2
(PID.TID 0000.0001) EXF_SET_FLD:   first, changed, fac:   F   F    0.49863387978142082
(PID.TID 0000.0001) EXF_SET_FLD: processing field "swdown",  file: fsh.labsea1979
(PID.TID 0000.0001) EXF_SET_FLD:   myIter, count0, count1:         1      1      2
(PID.TID 0000.0001) EXF_SET_FLD:   first, changed, fac:   F   F    0.49863387978142082
(PID.TID 0000.0001) EXF_SET_FLD: processing field "lwdown",  file: flo.labsea1979
(PID.TID 0000.0001) EXF_SET_FLD:   myIter, count0, count1:         1      1      2
(PID.TID 0000.0001) EXF_SET_FLD:   first, changed, fac:   F   F    0.49863387978142082
DEBUG_STATS_RL: Uice pre  iter (SEAICE_LSR  1)  min= -1.15942749827435E-03
DEBUG_STATS_RL: Uice pre  iter (SEAICE_LSR  1)  max=  1.20418167656252E-02
DEBUG_STATS_RL: Uice pre  iter (SEAICE_LSR  1) mean=  2.64506216410235E-03
DEBUG_STATS_RL: Uice pre  iter (SEAICE_LSR  1) S.D.=  3.13774756817759E-03
DEBUG_STATS_RL: Vice pre  iter (SEAICE_LSR  1)  min= -5.99336397479914E-03
DEBUG_STATS_RL: Vice pre  iter (SEAICE_LSR  1)  max=  4.08760906980194E-03
DEBUG_STATS_RL: Vice pre  iter (SEAICE_LSR  1) mean= -1.18494610218030E-03
DEBUG_STATS_RL: Vice pre  iter (SEAICE_LSR  1) S.D.=  2.51572614879252E-03
DEBUG_STATS_RL: Uice pre  iter (SEAICE_LSR  2)  min= -1.66461661595648E-03
DEBUG_STATS_RL: Uice pre  iter (SEAICE_LSR  2)  max=  2.05817158221004E-01
DEBUG_STATS_RL: Uice pre  iter (SEAICE_LSR  2) mean=  2.18937658776832E-02
DEBUG_STATS_RL: Uice pre  iter (SEAICE_LSR  2) S.D.=  4.15140060700823E-02
DEBUG_STATS_RL: Vice pre  iter (SEAICE_LSR  2)  min= -1.15170217244308E-02
DEBUG_STATS_RL: Vice pre  iter (SEAICE_LSR  2)  max=  6.02623623339015E-02
DEBUG_STATS_RL: Vice pre  iter (SEAICE_LSR  2) mean= -5.88552864146919E-04
DEBUG_STATS_RL: Vice pre  iter (SEAICE_LSR  2) S.D.=  1.21471679479680E-02
DEBUG_STATS_RL:                EtaN (DYNAMICS)  min= -7.91800933896177E-02
DEBUG_STATS_RL:                EtaN (DYNAMICS)  max=  2.06357890624784E-01
DEBUG_STATS_RL:                EtaN (DYNAMICS) mean= -8.74156541733471E-04
DEBUG_STATS_RL:                EtaN (DYNAMICS) S.D.=  4.22657013639480E-02
DEBUG_STATS_RL:                Uvel (DYNAMICS)  min= -1.97613285723242E-02
DEBUG_STATS_RL:                Uvel (DYNAMICS)  max=  1.31897193240012E-02
DEBUG_STATS_RL:                Uvel (DYNAMICS) mean= -7.76915115649382E-04
DEBUG_STATS_RL:                Uvel (DYNAMICS) S.D.=  3.97168834923499E-03
DEBUG_STATS_RL:                Vvel (DYNAMICS)  min= -1.13773235335529E-02
DEBUG_STATS_RL:                Vvel (DYNAMICS)  max=  2.04284639774261E-02
DEBUG_STATS_RL:                Vvel (DYNAMICS) mean=  7.24190880687442E-04
DEBUG_STATS_RL:                Vvel (DYNAMICS) S.D.=  4.28907995073846E-03
DEBUG_STATS_RL:                Wvel (DYNAMICS)  min= -4.27131465138430E-05
DEBUG_STATS_RL:                Wvel (DYNAMICS)  max=  1.16530364658749E-04
DEBUG_STATS_RL:                Wvel (DYNAMICS) mean= -4.07763417598552E-07
DEBUG_STATS_RL:                Wvel (DYNAMICS) S.D.=  1.80149904412009E-05
DEBUG_STATS_RL:               Theta (DYNAMICS)  min= -1.41019615972461E+00
DEBUG_STATS_RL:               Theta (DYNAMICS)  max=  1.32440592110212E+01
DEBUG_STATS_RL:               Theta (DYNAMICS) mean=  2.49735783552472E+00
DEBUG_STATS_RL:               Theta (DYNAMICS) S.D.=  2.45807980529386E+00
DEBUG_STATS_RL:                Salt (DYNAMICS)  min=  2.76560994014067E+01
DEBUG_STATS_RL:                Salt (DYNAMICS)  max=  3.54507778736995E+01
DEBUG_STATS_RL:                Salt (DYNAMICS) mean=  3.39623217189226E+01
DEBUG_STATS_RL:                Salt (DYNAMICS) S.D.=  1.10108958710694E+00
DEBUG_STATS_RL:                  Gu (DYNAMICS)  min= -2.89112950168885E-02
DEBUG_STATS_RL:                  Gu (DYNAMICS)  max=  3.25741619058367E-02
DEBUG_STATS_RL:                  Gu (DYNAMICS) mean= -2.32520622243425E-03
DEBUG_STATS_RL:                  Gu (DYNAMICS) S.D.=  7.09155735786263E-03
DEBUG_STATS_RL:                  Gv (DYNAMICS)  min= -3.71241625510621E-02
DEBUG_STATS_RL:                  Gv (DYNAMICS)  max=  1.83230442031147E-02
DEBUG_STATS_RL:                  Gv (DYNAMICS) mean= -1.89259208721291E-03
DEBUG_STATS_RL:                  Gv (DYNAMICS) S.D.=  7.31046974975991E-03
DEBUG_STATS_RL:               GuNm1 (DYNAMICS)  min= -1.80289983389196E-07
DEBUG_STATS_RL:               GuNm1 (DYNAMICS)  max=  1.49251399870334E-07
DEBUG_STATS_RL:               GuNm1 (DYNAMICS) mean=  3.41794292088730E-09
DEBUG_STATS_RL:               GuNm1 (DYNAMICS) S.D.=  3.19693794884499E-08
DEBUG_STATS_RL:               GvNm1 (DYNAMICS)  min= -5.11118133734402E-08
DEBUG_STATS_RL:               GvNm1 (DYNAMICS)  max=  4.88281454922596E-08
DEBUG_STATS_RL:               GvNm1 (DYNAMICS) mean= -4.70245831256227E-11
DEBUG_STATS_RL:               GvNm1 (DYNAMICS) S.D.=  1.42003013108260E-08
DEBUG_STATS_RL:               GtNm1 (DYNAMICS)  min=  0.00000000000000E+00
DEBUG_STATS_RL:               GtNm1 (DYNAMICS)  max=  0.00000000000000E+00
DEBUG_STATS_RL:               GtNm1 (DYNAMICS) mean=  0.00000000000000E+00
DEBUG_STATS_RL:               GtNm1 (DYNAMICS) S.D.=  0.00000000000000E+00
DEBUG_STATS_RL:               GsNm1 (DYNAMICS)  min=  0.00000000000000E+00
DEBUG_STATS_RL:               GsNm1 (DYNAMICS)  max=  0.00000000000000E+00
DEBUG_STATS_RL:               GsNm1 (DYNAMICS) mean=  0.00000000000000E+00
DEBUG_STATS_RL:               GsNm1 (DYNAMICS) S.D.=  0.00000000000000E+00
DEBUG_STATS_RL:    cg2d_b (SOLVE_FOR_PRESSURE)  min= -7.40048897093643E+03
DEBUG_STATS_RL:    cg2d_b (SOLVE_FOR_PRESSURE)  max=  2.33428667016753E+03
DEBUG_STATS_RL:    cg2d_b (SOLVE_FOR_PRESSURE) mean=  6.65068000671454E-14
DEBUG_STATS_RL:    cg2d_b (SOLVE_FOR_PRESSURE) S.D.=  9.39768538610387E+02
 cg2d: Sum(rhs),rhsMax =   2.02615701994091E-15  1.19110424780756E+00
DEBUG_STATS_RL:    cg2d_x (SOLVE_FOR_PRESSURE)  min= -1.25977767814681E+00
DEBUG_STATS_RL:    cg2d_x (SOLVE_FOR_PRESSURE)  max=  2.83276936769465E+00
DEBUG_STATS_RL:    cg2d_x (SOLVE_FOR_PRESSURE) mean= -1.56118539430743E-02
DEBUG_STATS_RL:    cg2d_x (SOLVE_FOR_PRESSURE) S.D.=  6.63083405130231E-01
DEBUG_STATS_RL:          Uvel (THERMODYNAMICS)  min= -4.02432897586650E-02
DEBUG_STATS_RL:          Uvel (THERMODYNAMICS)  max=  3.23458159885841E-02
DEBUG_STATS_RL:          Uvel (THERMODYNAMICS) mean=  6.75465330199973E-04
DEBUG_STATS_RL:          Uvel (THERMODYNAMICS) S.D.=  7.33761384667780E-03
DEBUG_STATS_RL:          Vvel (THERMODYNAMICS)  min= -1.64862319058739E-02
DEBUG_STATS_RL:          Vvel (THERMODYNAMICS)  max=  4.21759382970964E-02
DEBUG_STATS_RL:          Vvel (THERMODYNAMICS) mean=  1.82858022907551E-03
DEBUG_STATS_RL:          Vvel (THERMODYNAMICS) S.D.=  8.08424055893804E-03
DEBUG_STATS_RL:          Wvel (THERMODYNAMICS)  min= -6.56490529174613E-05
DEBUG_STATS_RL:          Wvel (THERMODYNAMICS)  max=  1.68683217295647E-04
DEBUG_STATS_RL:          Wvel (THERMODYNAMICS) mean= -4.30739495112522E-07
DEBUG_STATS_RL:          Wvel (THERMODYNAMICS) S.D.=  1.89945067258230E-05
DEBUG_STATS_RL:         Theta (THERMODYNAMICS)  min= -1.83156742552816E+00
DEBUG_STATS_RL:         Theta (THERMODYNAMICS)  max=  1.32606612249659E+01
DEBUG_STATS_RL:         Theta (THERMODYNAMICS) mean=  2.43057765558689E+00
DEBUG_STATS_RL:         Theta (THERMODYNAMICS) S.D.=  2.55246643542934E+00
DEBUG_STATS_RL:          Salt (THERMODYNAMICS)  min=  2.76092906345221E+01
DEBUG_STATS_RL:          Salt (THERMODYNAMICS)  max=  3.54509236522671E+01
DEBUG_STATS_RL:          Salt (THERMODYNAMICS) mean=  3.39413044254426E+01
DEBUG_STATS_RL:          Salt (THERMODYNAMICS) S.D.=  1.14495872836776E+00
DEBUG_STATS_RL:         GtNm1 (THERMODYNAMICS)  min=  0.00000000000000E+00
DEBUG_STATS_RL:         GtNm1 (THERMODYNAMICS)  max=  0.00000000000000E+00
DEBUG_STATS_RL:         GtNm1 (THERMODYNAMICS) mean=  0.00000000000000E+00
DEBUG_STATS_RL:         GtNm1 (THERMODYNAMICS) S.D.=  0.00000000000000E+00
DEBUG_STATS_RL:         GsNm1 (THERMODYNAMICS)  min=  0.00000000000000E+00
DEBUG_STATS_RL:         GsNm1 (THERMODYNAMICS)  max=  0.00000000000000E+00
DEBUG_STATS_RL:         GsNm1 (THERMODYNAMICS) mean=  0.00000000000000E+00
DEBUG_STATS_RL:         GsNm1 (THERMODYNAMICS) S.D.=  0.00000000000000E+00
(PID.TID 0000.0001)  MDS_WRITE_FIELD: it,rec,kS,kL,kH=       1     3   1   1   1 file=m_sst_step.0000000001
(PID.TID 0000.0001)  MDS_READ_FIELD: opening global file: xx_atemp.effective.0000000001.data
(PID.TID 0000.0001) EXF_SET_FLD: processing field "climsss",  file: SSS_monthly.labsea1979
(PID.TID 0000.0001) EXF_SET_FLD:   myIter, count0, count1:         2      1      2
(PID.TID 0000.0001) EXF_SET_FLD:   first, changed, fac:   F   F    0.49726775956284153
(PID.TID 0000.0001) EXF_SET_FLD: processing field "uwind",  file: u10m.labsea1979
(PID.TID 0000.0001) EXF_SET_FLD:   myIter, count0, count1:         2      1      2
(PID.TID 0000.0001) EXF_SET_FLD:   first, changed, fac:   F   F    0.49726775956284153
(PID.TID 0000.0001) EXF_SET_FLD: processing field "vwind",  file: v10m.labsea1979
(PID.TID 0000.0001) EXF_SET_FLD:   myIter, count0, count1:         2      1      2
(PID.TID 0000.0001) EXF_SET_FLD:   first, changed, fac:   F   F    0.49726775956284153
(PID.TID 0000.0001) EXF_SET_FLD: processing field "atemp",  file: tair.labsea1979
(PID.TID 0000.0001) EXF_SET_FLD:   myIter, count0, count1:         2      1      2
(PID.TID 0000.0001) EXF_SET_FLD:   first, changed, fac:   F   F    0.49726775956284153
(PID.TID 0000.0001) EXF_SET_FLD: processing field "aqh",  file: qa.labsea1979
(PID.TID 0000.0001) EXF_SET_FLD:   myIter, count0, count1:         2      1      2
(PID.TID 0000.0001) EXF_SET_FLD:   first, changed, fac:   F   F    0.49726775956284153
(PID.TID 0000.0001) EXF_SET_FLD: processing field "precip",  file: prate.labsea1979
(PID.TID 0000.0001) EXF_SET_FLD:   myIter, count0, count1:         2      1      2
(PID.TID 0000.0001) EXF_SET_FLD:   first, changed, fac:   F   F    0.49726775956284153
(PID.TID 0000.0001) EXF_SET_FLD: processing field "swdown",  file: fsh.labsea1979
(PID.TID 0000.0001) EXF_SET_FLD:   myIter, count0, count1:         2      1      2
(PID.TID 0000.0001) EXF_SET_FLD:   first, changed, fac:   F   F    0.49726775956284153
(PID.TID 0000.0001) EXF_SET_FLD: processing field "lwdown",  file: flo.labsea1979
(PID.TID 0000.0001) EXF_SET_FLD:   myIter, count0, count1:         2      1      2
(PID.TID 0000.0001) EXF_SET_FLD:   first, changed, fac:   F   F    0.49726775956284153
DEBUG_STATS_RL: Uice pre  iter (SEAICE_LSR  1)  min= -2.72590911190358E-03
DEBUG_STATS_RL: Uice pre  iter (SEAICE_LSR  1)  max=  1.84821888363616E-01
DEBUG_STATS_RL: Uice pre  iter (SEAICE_LSR  1) mean=  4.43171854917346E-02
DEBUG_STATS_RL: Uice pre  iter (SEAICE_LSR  1) S.D.=  5.55969094951413E-02
DEBUG_STATS_RL: Vice pre  iter (SEAICE_LSR  1)  min= -3.16987209121493E-02
DEBUG_STATS_RL: Vice pre  iter (SEAICE_LSR  1)  max=  6.25866618672353E-02
DEBUG_STATS_RL: Vice pre  iter (SEAICE_LSR  1) mean= -5.92146683088015E-03
DEBUG_STATS_RL: Vice pre  iter (SEAICE_LSR  1) S.D.=  1.77615498820517E-02
DEBUG_STATS_RL: Uice pre  iter (SEAICE_LSR  2)  min= -3.50206878134739E-03
DEBUG_STATS_RL: Uice pre  iter (SEAICE_LSR  2)  max=  1.92025155896598E-01
DEBUG_STATS_RL: Uice pre  iter (SEAICE_LSR  2) mean=  5.29589963329459E-02
DEBUG_STATS_RL: Uice pre  iter (SEAICE_LSR  2) S.D.=  5.86189159298768E-02
DEBUG_STATS_RL: Vice pre  iter (SEAICE_LSR  2)  min= -6.12456112266772E-02
DEBUG_STATS_RL: Vice pre  iter (SEAICE_LSR  2)  max=  9.55317561460538E-02
DEBUG_STATS_RL: Vice pre  iter (SEAICE_LSR  2) mean= -1.11523016932020E-02
DEBUG_STATS_RL: Vice pre  iter (SEAICE_LSR  2) S.D.=  2.73762100034330E-02
DEBUG_STATS_RL:                EtaN (DYNAMICS)  min= -1.28344439274911E-01
DEBUG_STATS_RL:                EtaN (DYNAMICS)  max=  2.88598696737300E-01
DEBUG_STATS_RL:                EtaN (DYNAMICS) mean= -1.59051448134340E-03
DEBUG_STATS_RL:                EtaN (DYNAMICS) S.D.=  6.75540369544634E-02
DEBUG_STATS_RL:                Uvel (DYNAMICS)  min= -4.02432897586650E-02
DEBUG_STATS_RL:                Uvel (DYNAMICS)  max=  3.23458159885841E-02
DEBUG_STATS_RL:                Uvel (DYNAMICS) mean=  6.75465330199973E-04
DEBUG_STATS_RL:                Uvel (DYNAMICS) S.D.=  7.33761384667780E-03
DEBUG_STATS_RL:                Vvel (DYNAMICS)  min= -1.64862319058739E-02
DEBUG_STATS_RL:                Vvel (DYNAMICS)  max=  4.21759382970964E-02
DEBUG_STATS_RL:                Vvel (DYNAMICS) mean=  1.82858022907551E-03
DEBUG_STATS_RL:                Vvel (DYNAMICS) S.D.=  8.08424055893804E-03
DEBUG_STATS_RL:                Wvel (DYNAMICS)  min= -6.56490529174613E-05
DEBUG_STATS_RL:                Wvel (DYNAMICS)  max=  1.68683217295647E-04
DEBUG_STATS_RL:                Wvel (DYNAMICS) mean= -4.30739495112522E-07
DEBUG_STATS_RL:                Wvel (DYNAMICS) S.D.=  1.89945067258230E-05
DEBUG_STATS_RL:               Theta (DYNAMICS)  min= -1.83156742552816E+00
DEBUG_STATS_RL:               Theta (DYNAMICS)  max=  1.32606612249659E+01
DEBUG_STATS_RL:               Theta (DYNAMICS) mean=  2.43057765558689E+00
DEBUG_STATS_RL:               Theta (DYNAMICS) S.D.=  2.55246643542934E+00
DEBUG_STATS_RL:                Salt (DYNAMICS)  min=  2.76092906345221E+01
DEBUG_STATS_RL:                Salt (DYNAMICS)  max=  3.54509236522671E+01
DEBUG_STATS_RL:                Salt (DYNAMICS) mean=  3.39413044254426E+01
DEBUG_STATS_RL:                Salt (DYNAMICS) S.D.=  1.14495872836776E+00
DEBUG_STATS_RL:                  Gu (DYNAMICS)  min= -3.23510557472039E-02
DEBUG_STATS_RL:                  Gu (DYNAMICS)  max=  5.80377411255948E-02
DEBUG_STATS_RL:                  Gu (DYNAMICS) mean= -2.97572069547591E-04
DEBUG_STATS_RL:                  Gu (DYNAMICS) S.D.=  9.92934455352856E-03
DEBUG_STATS_RL:                  Gv (DYNAMICS)  min= -4.01882757136262E-02
DEBUG_STATS_RL:                  Gv (DYNAMICS)  max=  3.49568132071783E-02
DEBUG_STATS_RL:                  Gv (DYNAMICS) mean= -2.47632966120915E-03
DEBUG_STATS_RL:                  Gv (DYNAMICS) S.D.=  9.60357312382084E-03
DEBUG_STATS_RL:               GuNm1 (DYNAMICS)  min= -2.64915263690508E-07
DEBUG_STATS_RL:               GuNm1 (DYNAMICS)  max=  1.75889100747609E-07
DEBUG_STATS_RL:               GuNm1 (DYNAMICS) mean=  2.42191647086962E-09
DEBUG_STATS_RL:               GuNm1 (DYNAMICS) S.D.=  4.49076324943056E-08
DEBUG_STATS_RL:               GvNm1 (DYNAMICS)  min= -8.47298200116697E-08
DEBUG_STATS_RL:               GvNm1 (DYNAMICS)  max=  7.67749697778871E-08
DEBUG_STATS_RL:               GvNm1 (DYNAMICS) mean= -4.71533361266736E-10
DEBUG_STATS_RL:               GvNm1 (DYNAMICS) S.D.=  2.04113373444364E-08
DEBUG_STATS_RL:               GtNm1 (DYNAMICS)  min=  0.00000000000000E+00
DEBUG_STATS_RL:               GtNm1 (DYNAMICS)  max=  0.00000000000000E+00
DEBUG_STATS_RL:               GtNm1 (DYNAMICS) mean=  0.00000000000000E+00
DEBUG_STATS_RL:               GtNm1 (DYNAMICS) S.D.=  0.00000000000000E+00
DEBUG_STATS_RL:               GsNm1 (DYNAMICS)  min=  0.00000000000000E+00
DEBUG_STATS_RL:               GsNm1 (DYNAMICS)  max=  0.00000000000000E+00
DEBUG_STATS_RL:               GsNm1 (DYNAMICS) mean=  0.00000000000000E+00
DEBUG_STATS_RL:               GsNm1 (DYNAMICS) S.D.=  0.00000000000000E+00
DEBUG_STATS_RL:    cg2d_b (SOLVE_FOR_PRESSURE)  min= -7.51696131718244E+03
DEBUG_STATS_RL:    cg2d_b (SOLVE_FOR_PRESSURE)  max=  2.21291016221047E+03
DEBUG_STATS_RL:    cg2d_b (SOLVE_FOR_PRESSURE) mean=  4.75779415864963E-13
DEBUG_STATS_RL:    cg2d_b (SOLVE_FOR_PRESSURE) S.D.=  9.35355930257383E+02
 cg2d: Sum(rhs),rhsMax =   8.33014213164063E-15  1.20985040186718E+00
DEBUG_STATS_RL:    cg2d_x (SOLVE_FOR_PRESSURE)  min= -1.39137659519036E+00
DEBUG_STATS_RL:    cg2d_x (SOLVE_FOR_PRESSURE)  max=  3.06244143644364E+00
DEBUG_STATS_RL:    cg2d_x (SOLVE_FOR_PRESSURE) mean= -2.04738907199890E-02
DEBUG_STATS_RL:    cg2d_x (SOLVE_FOR_PRESSURE) S.D.=  7.54254787473811E-01
DEBUG_STATS_RL:          Uvel (THERMODYNAMICS)  min= -4.85747443135362E-02
DEBUG_STATS_RL:          Uvel (THERMODYNAMICS)  max=  6.48566534974150E-02
DEBUG_STATS_RL:          Uvel (THERMODYNAMICS) mean=  2.83347825459501E-03
DEBUG_STATS_RL:          Uvel (THERMODYNAMICS) S.D.=  1.04406948546697E-02
DEBUG_STATS_RL:          Vvel (THERMODYNAMICS)  min= -2.93630589501895E-02
DEBUG_STATS_RL:          Vvel (THERMODYNAMICS)  max=  5.51081422495760E-02
DEBUG_STATS_RL:          Vvel (THERMODYNAMICS) mean=  1.89398823345767E-03
DEBUG_STATS_RL:          Vvel (THERMODYNAMICS) S.D.=  1.13685531752988E-02
DEBUG_STATS_RL:          Wvel (THERMODYNAMICS)  min= -1.01835019199987E-04
DEBUG_STATS_RL:          Wvel (THERMODYNAMICS)  max=  2.18299385766782E-04
DEBUG_STATS_RL:          Wvel (THERMODYNAMICS) mean= -3.58449213337713E-07
DEBUG_STATS_RL:          Wvel (THERMODYNAMICS) S.D.=  2.04428902649919E-05
DEBUG_STATS_RL:         Theta (THERMODYNAMICS)  min= -1.93250363389783E+00
DEBUG_STATS_RL:         Theta (THERMODYNAMICS)  max=  1.32631363173882E+01
DEBUG_STATS_RL:         Theta (THERMODYNAMICS) mean=  2.41867029854828E+00
DEBUG_STATS_RL:         Theta (THERMODYNAMICS) S.D.=  2.57126546321788E+00
DEBUG_STATS_RL:          Salt (THERMODYNAMICS)  min=  2.76143299539290E+01
DEBUG_STATS_RL:          Salt (THERMODYNAMICS)  max=  3.54510577106203E+01
DEBUG_STATS_RL:          Salt (THERMODYNAMICS) mean=  3.39375783473297E+01
DEBUG_STATS_RL:          Salt (THERMODYNAMICS) S.D.=  1.15271478316371E+00
DEBUG_STATS_RL:         GtNm1 (THERMODYNAMICS)  min=  0.00000000000000E+00
DEBUG_STATS_RL:         GtNm1 (THERMODYNAMICS)  max=  0.00000000000000E+00
DEBUG_STATS_RL:         GtNm1 (THERMODYNAMICS) mean=  0.00000000000000E+00
DEBUG_STATS_RL:         GtNm1 (THERMODYNAMICS) S.D.=  0.00000000000000E+00
DEBUG_STATS_RL:         GsNm1 (THERMODYNAMICS)  min=  0.00000000000000E+00
DEBUG_STATS_RL:         GsNm1 (THERMODYNAMICS)  max=  0.00000000000000E+00
DEBUG_STATS_RL:         GsNm1 (THERMODYNAMICS) mean=  0.00000000000000E+00
DEBUG_STATS_RL:         GsNm1 (THERMODYNAMICS) S.D.=  0.00000000000000E+00
(PID.TID 0000.0001)  MDS_WRITE_FIELD: it,rec,kS,kL,kH=       1     4   1   1   1 file=m_sst_step.0000000001
(PID.TID 0000.0001)  MDS_READ_FIELD: opening global file: xx_atemp.effective.0000000001.data
(PID.TID 0000.0001) EXF_SET_FLD: processing field "climsss",  file: SSS_monthly.labsea1979
(PID.TID 0000.0001) EXF_SET_FLD:   myIter, count0, count1:         3      1      2
(PID.TID 0000.0001) EXF_SET_FLD:   first, changed, fac:   F   F    0.49590163934426235
(PID.TID 0000.0001) EXF_SET_FLD: processing field "uwind",  file: u10m.labsea1979
(PID.TID 0000.0001) EXF_SET_FLD:   myIter, count0, count1:         3      1      2
(PID.TID 0000.0001) EXF_SET_FLD:   first, changed, fac:   F   F    0.49590163934426235
(PID.TID 0000.0001) EXF_SET_FLD: processing field "vwind",  file: v10m.labsea1979
(PID.TID 0000.0001) EXF_SET_FLD:   myIter, count0, count1:         3      1      2
(PID.TID 0000.0001) EXF_SET_FLD:   first, changed, fac:   F   F    0.49590163934426235
(PID.TID 0000.0001) EXF_SET_FLD: processing field "atemp",  file: tair.labsea1979
(PID.TID 0000.0001) EXF_SET_FLD:   myIter, count0, count1:         3      1      2
(PID.TID 0000.0001) EXF_SET_FLD:   first, changed, fac:   F   F    0.49590163934426235
(PID.TID 0000.0001) EXF_SET_FLD: processing field "aqh",  file: qa.labsea1979
(PID.TID 0000.0001) EXF_SET_FLD:   myIter, count0, count1:         3      1      2
(PID.TID 0000.0001) EXF_SET_FLD:   first, changed, fac:   F   F    0.49590163934426235
(PID.TID 0000.0001) EXF_SET_FLD: processing field "precip",  file: prate.labsea1979
(PID.TID 0000.0001) EXF_SET_FLD:   myIter, count0, count1:         3      1      2
(PID.TID 0000.0001) EXF_SET_FLD:   first, changed, fac:   F   F    0.49590163934426235
(PID.TID 0000.0001) EXF_SET_FLD: processing field "swdown",  file: fsh.labsea1979
(PID.TID 0000.0001) EXF_SET_FLD:   myIter, count0, count1:         3      1      2
(PID.TID 0000.0001) EXF_SET_FLD:   first, changed, fac:   F   F    0.49590163934426235
(PID.TID 0000.0001) EXF_SET_FLD: processing field "lwdown",  file: flo.labsea1979
(PID.TID 0000.0001) EXF_SET_FLD:   myIter, count0, count1:         3      1      2
(PID.TID 0000.0001) EXF_SET_FLD:   first, changed, fac:   F   F    0.49590163934426235
DEBUG_STATS_RL: Uice pre  iter (SEAICE_LSR  1)  min= -4.89522325595914E-03
DEBUG_STATS_RL: Uice pre  iter (SEAICE_LSR  1)  max=  1.61355517756085E-01
DEBUG_STATS_RL: Uice pre  iter (SEAICE_LSR  1) mean=  5.67051326036847E-02
DEBUG_STATS_RL: Uice pre  iter (SEAICE_LSR  1) S.D.=  5.73816154994244E-02
DEBUG_STATS_RL: Vice pre  iter (SEAICE_LSR  1)  min= -1.51246540995866E-01
DEBUG_STATS_RL: Vice pre  iter (SEAICE_LSR  1)  max=  8.91076561218487E-02
DEBUG_STATS_RL: Vice pre  iter (SEAICE_LSR  1) mean= -1.97403473770745E-02
DEBUG_STATS_RL: Vice pre  iter (SEAICE_LSR  1) S.D.=  3.94189649069187E-02
DEBUG_STATS_RL: Uice pre  iter (SEAICE_LSR  2)  min= -5.42054480415830E-03
DEBUG_STATS_RL: Uice pre  iter (SEAICE_LSR  2)  max=  2.02641844081809E-01
DEBUG_STATS_RL: Uice pre  iter (SEAICE_LSR  2) mean=  6.47762112262301E-02
DEBUG_STATS_RL: Uice pre  iter (SEAICE_LSR  2) S.D.=  6.71608790532201E-02
DEBUG_STATS_RL: Vice pre  iter (SEAICE_LSR  2)  min= -1.45601126352232E-01
DEBUG_STATS_RL: Vice pre  iter (SEAICE_LSR  2)  max=  1.04145470460116E-01
DEBUG_STATS_RL: Vice pre  iter (SEAICE_LSR  2) mean= -2.31827417442687E-02
DEBUG_STATS_RL: Vice pre  iter (SEAICE_LSR  2) S.D.=  4.33109039412221E-02
DEBUG_STATS_RL:                EtaN (DYNAMICS)  min= -1.41751558253225E-01
DEBUG_STATS_RL:                EtaN (DYNAMICS)  max=  3.11997375243861E-01
DEBUG_STATS_RL:                EtaN (DYNAMICS) mean= -2.08585218631455E-03
DEBUG_STATS_RL:                EtaN (DYNAMICS) S.D.=  7.68424535916103E-02
DEBUG_STATS_RL:                Uvel (DYNAMICS)  min= -4.85747443135362E-02
DEBUG_STATS_RL:                Uvel (DYNAMICS)  max=  6.48566534974150E-02
DEBUG_STATS_RL:                Uvel (DYNAMICS) mean=  2.83347825459501E-03
DEBUG_STATS_RL:                Uvel (DYNAMICS) S.D.=  1.04406948546697E-02
DEBUG_STATS_RL:                Vvel (DYNAMICS)  min= -2.93630589501895E-02
DEBUG_STATS_RL:                Vvel (DYNAMICS)  max=  5.51081422495760E-02
DEBUG_STATS_RL:                Vvel (DYNAMICS) mean=  1.89398823345767E-03
DEBUG_STATS_RL:                Vvel (DYNAMICS) S.D.=  1.13685531752988E-02
DEBUG_STATS_RL:                Wvel (DYNAMICS)  min= -1.01835019199987E-04
DEBUG_STATS_RL:                Wvel (DYNAMICS)  max=  2.18299385766782E-04
DEBUG_STATS_RL:                Wvel (DYNAMICS) mean= -3.58449213337713E-07
DEBUG_STATS_RL:                Wvel (DYNAMICS) S.D.=  2.04428902649919E-05
DEBUG_STATS_RL:               Theta (DYNAMICS)  min= -1.93250363389783E+00
DEBUG_STATS_RL:               Theta (DYNAMICS)  max=  1.32631363173882E+01
DEBUG_STATS_RL:               Theta (DYNAMICS) mean=  2.41867029854828E+00
DEBUG_STATS_RL:               Theta (DYNAMICS) S.D.=  2.57126546321788E+00
DEBUG_STATS_RL:                Salt (DYNAMICS)  min=  2.76143299539290E+01
DEBUG_STATS_RL:                Salt (DYNAMICS)  max=  3.54510577106203E+01
DEBUG_STATS_RL:                Salt (DYNAMICS) mean=  3.39375783473297E+01
DEBUG_STATS_RL:                Salt (DYNAMICS) S.D.=  1.15271478316371E+00
DEBUG_STATS_RL:                  Gu (DYNAMICS)  min= -3.31660092548342E-02
DEBUG_STATS_RL:                  Gu (DYNAMICS)  max=  7.71641715782453E-02
DEBUG_STATS_RL:                  Gu (DYNAMICS) mean=  1.79729889201358E-03
DEBUG_STATS_RL:                  Gu (DYNAMICS) S.D.=  1.23549872720826E-02
DEBUG_STATS_RL:                  Gv (DYNAMICS)  min= -6.51102265935056E-02
DEBUG_STATS_RL:                  Gv (DYNAMICS)  max=  4.74792371894019E-02
DEBUG_STATS_RL:                  Gv (DYNAMICS) mean= -3.61268002204572E-03
DEBUG_STATS_RL:                  Gv (DYNAMICS) S.D.=  1.25565096773628E-02
DEBUG_STATS_RL:               GuNm1 (DYNAMICS)  min= -2.57489899416700E-07
DEBUG_STATS_RL:               GuNm1 (DYNAMICS)  max=  1.89368528479160E-07
DEBUG_STATS_RL:               GuNm1 (DYNAMICS) mean=  4.40117075684172E-12
DEBUG_STATS_RL:               GuNm1 (DYNAMICS) S.D.=  4.68821385830741E-08
DEBUG_STATS_RL:               GvNm1 (DYNAMICS)  min= -1.09603640235133E-07
DEBUG_STATS_RL:               GvNm1 (DYNAMICS)  max=  9.62789262154708E-08
DEBUG_STATS_RL:               GvNm1 (DYNAMICS) mean= -8.49526391154278E-10
DEBUG_STATS_RL:               GvNm1 (DYNAMICS) S.D.=  2.55629549792409E-08
DEBUG_STATS_RL:               GtNm1 (DYNAMICS)  min=  0.00000000000000E+00
DEBUG_STATS_RL:               GtNm1 (DYNAMICS)  max=  0.00000000000000E+00
DEBUG_STATS_RL:               GtNm1 (DYNAMICS) mean=  0.00000000000000E+00
DEBUG_STATS_RL:               GtNm1 (DYNAMICS) S.D.=  0.00000000000000E+00
DEBUG_STATS_RL:               GsNm1 (DYNAMICS)  min=  0.00000000000000E+00
DEBUG_STATS_RL:               GsNm1 (DYNAMICS)  max=  0.00000000000000E+00
DEBUG_STATS_RL:               GsNm1 (DYNAMICS) mean=  0.00000000000000E+00
DEBUG_STATS_RL:               GsNm1 (DYNAMICS) S.D.=  0.00000000000000E+00
DEBUG_STATS_RL:    cg2d_b (SOLVE_FOR_PRESSURE)  min= -7.48820843436669E+03
DEBUG_STATS_RL:    cg2d_b (SOLVE_FOR_PRESSURE)  max=  2.19603477106480E+03
DEBUG_STATS_RL:    cg2d_b (SOLVE_FOR_PRESSURE) mean=  3.44281640233627E-13
DEBUG_STATS_RL:    cg2d_b (SOLVE_FOR_PRESSURE) S.D.=  9.20730314173870E+02
 cg2d: Sum(rhs),rhsMax =   5.89459037136919E-15  1.20522264267545E+00
DEBUG_STATS_RL:    cg2d_x (SOLVE_FOR_PRESSURE)  min= -1.31033012419208E+00
DEBUG_STATS_RL:    cg2d_x (SOLVE_FOR_PRESSURE)  max=  3.14089981024899E+00
DEBUG_STATS_RL:    cg2d_x (SOLVE_FOR_PRESSURE) mean= -2.47876044022669E-02
DEBUG_STATS_RL:    cg2d_x (SOLVE_FOR_PRESSURE) S.D.=  7.62604990072822E-01
DEBUG_STATS_RL:          Uvel (THERMODYNAMICS)  min= -4.51228100181662E-02
DEBUG_STATS_RL:          Uvel (THERMODYNAMICS)  max=  8.23946614698051E-02
DEBUG_STATS_RL:          Uvel (THERMODYNAMICS) mean=  4.46006533351619E-03
DEBUG_STATS_RL:          Uvel (THERMODYNAMICS) S.D.=  1.25503402183582E-02
DEBUG_STATS_RL:          Vvel (THERMODYNAMICS)  min= -5.43131072024483E-02
DEBUG_STATS_RL:          Vvel (THERMODYNAMICS)  max=  6.64710959483306E-02
DEBUG_STATS_RL:          Vvel (THERMODYNAMICS) mean=  9.07394962406860E-04
DEBUG_STATS_RL:          Vvel (THERMODYNAMICS) S.D.=  1.42265213439478E-02
DEBUG_STATS_RL:          Wvel (THERMODYNAMICS)  min= -1.50094143875168E-04
DEBUG_STATS_RL:          Wvel (THERMODYNAMICS)  max=  2.67848367720697E-04
DEBUG_STATS_RL:          Wvel (THERMODYNAMICS) mean= -2.83768310637435E-07
DEBUG_STATS_RL:          Wvel (THERMODYNAMICS) S.D.=  2.30755404976209E-05
DEBUG_STATS_RL:         Theta (THERMODYNAMICS)  min= -1.95323356757650E+00
DEBUG_STATS_RL:         Theta (THERMODYNAMICS)  max=  1.32611729219857E+01
DEBUG_STATS_RL:         Theta (THERMODYNAMICS) mean=  2.41624287435038E+00
DEBUG_STATS_RL:         Theta (THERMODYNAMICS) S.D.=  2.57467251754838E+00
DEBUG_STATS_RL:          Salt (THERMODYNAMICS)  min=  2.76192995644599E+01
DEBUG_STATS_RL:          Salt (THERMODYNAMICS)  max=  3.54511687806856E+01
DEBUG_STATS_RL:          Salt (THERMODYNAMICS) mean=  3.39368869963855E+01
DEBUG_STATS_RL:          Salt (THERMODYNAMICS) S.D.=  1.15395653842415E+00
DEBUG_STATS_RL:         GtNm1 (THERMODYNAMICS)  min=  0.00000000000000E+00
DEBUG_STATS_RL:         GtNm1 (THERMODYNAMICS)  max=  0.00000000000000E+00
DEBUG_STATS_RL:         GtNm1 (THERMODYNAMICS) mean=  0.00000000000000E+00
DEBUG_STATS_RL:         GtNm1 (THERMODYNAMICS) S.D.=  0.00000000000000E+00
DEBUG_STATS_RL:         GsNm1 (THERMODYNAMICS)  min=  0.00000000000000E+00
DEBUG_STATS_RL:         GsNm1 (THERMODYNAMICS)  max=  0.00000000000000E+00
DEBUG_STATS_RL:         GsNm1 (THERMODYNAMICS) mean=  0.00000000000000E+00
DEBUG_STATS_RL:         GsNm1 (THERMODYNAMICS) S.D.=  0.00000000000000E+00
(PID.TID 0000.0001)  MDS_WRITE_FIELD: it,rec,kS,kL,kH=       1     5   1   1   1 file=m_sst_step.0000000001
(PID.TID 0000.0001)  MDS_READ_FIELD: opening global file: xx_atemp.effective.0000000001.data
(PID.TID 0000.0001) EXF_SET_FLD: processing field "climsss",  file: SSS_monthly.labsea1979
(PID.TID 0000.0001) EXF_SET_FLD:   myIter, count0, count1:         4      1      2
(PID.TID 0000.0001) EXF_SET_FLD:   first, changed, fac:   F   F    0.49453551912568305
(PID.TID 0000.0001) EXF_SET_FLD: processing field "uwind",  file: u10m.labsea1979
(PID.TID 0000.0001) EXF_SET_FLD:   myIter, count0, count1:         4      1      2
(PID.TID 0000.0001) EXF_SET_FLD:   first, changed, fac:   F   F    0.49453551912568305
(PID.TID 0000.0001) EXF_SET_FLD: processing field "vwind",  file: v10m.labsea1979
(PID.TID 0000.0001) EXF_SET_FLD:   myIter, count0, count1:         4      1      2
(PID.TID 0000.0001) EXF_SET_FLD:   first, changed, fac:   F   F    0.49453551912568305
(PID.TID 0000.0001) EXF_SET_FLD: processing field "atemp",  file: tair.labsea1979
(PID.TID 0000.0001) EXF_SET_FLD:   myIter, count0, count1:         4      1      2
(PID.TID 0000.0001) EXF_SET_FLD:   first, changed, fac:   F   F    0.49453551912568305
(PID.TID 0000.0001) EXF_SET_FLD: processing field "aqh",  file: qa.labsea1979
(PID.TID 0000.0001) EXF_SET_FLD:   myIter, count0, count1:         4      1      2
(PID.TID 0000.0001) EXF_SET_FLD:   first, changed, fac:   F   F    0.49453551912568305
(PID.TID 0000.0001) EXF_SET_FLD: processing field "precip",  file: prate.labsea1979
(PID.TID 0000.0001) EXF_SET_FLD:   myIter, count0, count1:         4      1      2
(PID.TID 0000.0001) EXF_SET_FLD:   first, changed, fac:   F   F    0.49453551912568305
(PID.TID 0000.0001) EXF_SET_FLD: processing field "swdown",  file: fsh.labsea1979
(PID.TID 0000.0001) EXF_SET_FLD:   myIter, count0, count1:         4      1      2
(PID.TID 0000.0001) EXF_SET_FLD:   first, changed, fac:   F   F    0.49453551912568305
(PID.TID 0000.0001) EXF_SET_FLD: processing field "lwdown",  file: flo.labsea1979
(PID.TID 0000.0001) EXF_SET_FLD:   myIter, count0, count1:         4      1      2
(PID.TID 0000.0001) EXF_SET_FLD:   first, changed, fac:   F   F    0.49453551912568305
DEBUG_STATS_RL: Uice pre  iter (SEAICE_LSR  1)  min= -6.64884179984287E-03
DEBUG_STATS_RL: Uice pre  iter (SEAICE_LSR  1)  max=  1.92542735136310E-01
DEBUG_STATS_RL: Uice pre  iter (SEAICE_LSR  1) mean=  6.47686246165947E-02
DEBUG_STATS_RL: Uice pre  iter (SEAICE_LSR  1) S.D.=  6.59732959908599E-02
DEBUG_STATS_RL: Vice pre  iter (SEAICE_LSR  1)  min= -1.58345599530563E-01
DEBUG_STATS_RL: Vice pre  iter (SEAICE_LSR  1)  max=  1.04255589228156E-01
DEBUG_STATS_RL: Vice pre  iter (SEAICE_LSR  1) mean= -2.61122078453811E-02
DEBUG_STATS_RL: Vice pre  iter (SEAICE_LSR  1) S.D.=  4.54292968520331E-02
DEBUG_STATS_RL: Uice pre  iter (SEAICE_LSR  2)  min= -7.39582706169563E-03
DEBUG_STATS_RL: Uice pre  iter (SEAICE_LSR  2)  max=  2.22032103672184E-01
DEBUG_STATS_RL: Uice pre  iter (SEAICE_LSR  2) mean=  6.99701895635941E-02
DEBUG_STATS_RL: Uice pre  iter (SEAICE_LSR  2) S.D.=  7.26089122438623E-02
DEBUG_STATS_RL: Vice pre  iter (SEAICE_LSR  2)  min= -1.71770480186525E-01
DEBUG_STATS_RL: Vice pre  iter (SEAICE_LSR  2)  max=  1.08496327276559E-01
DEBUG_STATS_RL: Vice pre  iter (SEAICE_LSR  2) mean= -3.10609864817909E-02
DEBUG_STATS_RL: Vice pre  iter (SEAICE_LSR  2) S.D.=  4.99863315300429E-02
DEBUG_STATS_RL:                EtaN (DYNAMICS)  min= -1.33494653835942E-01
DEBUG_STATS_RL:                EtaN (DYNAMICS)  max=  3.19990607833346E-01
DEBUG_STATS_RL:                EtaN (DYNAMICS) mean= -2.52532747893831E-03
DEBUG_STATS_RL:                EtaN (DYNAMICS) S.D.=  7.76931608941707E-02
DEBUG_STATS_RL:                Uvel (DYNAMICS)  min= -4.51228100181662E-02
DEBUG_STATS_RL:                Uvel (DYNAMICS)  max=  8.23946614698051E-02
DEBUG_STATS_RL:                Uvel (DYNAMICS) mean=  4.46006533351619E-03
DEBUG_STATS_RL:                Uvel (DYNAMICS) S.D.=  1.25503402183582E-02
DEBUG_STATS_RL:                Vvel (DYNAMICS)  min= -5.43131072024483E-02
DEBUG_STATS_RL:                Vvel (DYNAMICS)  max=  6.64710959483306E-02
DEBUG_STATS_RL:                Vvel (DYNAMICS) mean=  9.07394962406860E-04
DEBUG_STATS_RL:                Vvel (DYNAMICS) S.D.=  1.42265213439478E-02
DEBUG_STATS_RL:                Wvel (DYNAMICS)  min= -1.50094143875168E-04
DEBUG_STATS_RL:                Wvel (DYNAMICS)  max=  2.67848367720697E-04
DEBUG_STATS_RL:                Wvel (DYNAMICS) mean= -2.83768310637435E-07
DEBUG_STATS_RL:                Wvel (DYNAMICS) S.D.=  2.30755404976209E-05
DEBUG_STATS_RL:               Theta (DYNAMICS)  min= -1.95323356757650E+00
DEBUG_STATS_RL:               Theta (DYNAMICS)  max=  1.32611729219857E+01
DEBUG_STATS_RL:               Theta (DYNAMICS) mean=  2.41624287435038E+00
DEBUG_STATS_RL:               Theta (DYNAMICS) S.D.=  2.57467251754838E+00
DEBUG_STATS_RL:                Salt (DYNAMICS)  min=  2.76192995644599E+01
DEBUG_STATS_RL:                Salt (DYNAMICS)  max=  3.54511687806856E+01
DEBUG_STATS_RL:                Salt (DYNAMICS) mean=  3.39368869963855E+01
DEBUG_STATS_RL:                Salt (DYNAMICS) S.D.=  1.15395653842415E+00
DEBUG_STATS_RL:                  Gu (DYNAMICS)  min= -3.06969616935960E-02
DEBUG_STATS_RL:                  Gu (DYNAMICS)  max=  9.72073114926344E-02
DEBUG_STATS_RL:                  Gu (DYNAMICS) mean=  3.10151082316108E-03
DEBUG_STATS_RL:                  Gu (DYNAMICS) S.D.=  1.41052551008784E-02
DEBUG_STATS_RL:                  Gv (DYNAMICS)  min= -9.53132079806850E-02
DEBUG_STATS_RL:                  Gv (DYNAMICS)  max=  5.33682068181783E-02
DEBUG_STATS_RL:                  Gv (DYNAMICS) mean= -5.06243016752701E-03
DEBUG_STATS_RL:                  Gv (DYNAMICS) S.D.=  1.53588463679206E-02
DEBUG_STATS_RL:               GuNm1 (DYNAMICS)  min= -2.35357489189901E-07
DEBUG_STATS_RL:               GuNm1 (DYNAMICS)  max=  1.71456102315423E-07
DEBUG_STATS_RL:               GuNm1 (DYNAMICS) mean= -2.01481983921456E-09
DEBUG_STATS_RL:               GuNm1 (DYNAMICS) S.D.=  4.45062316312385E-08
DEBUG_STATS_RL:               GvNm1 (DYNAMICS)  min= -1.49109605789103E-07
DEBUG_STATS_RL:               GvNm1 (DYNAMICS)  max=  1.05797935490741E-07
DEBUG_STATS_RL:               GvNm1 (DYNAMICS) mean= -1.04937902583692E-09
DEBUG_STATS_RL:               GvNm1 (DYNAMICS) S.D.=  3.09410614929411E-08
DEBUG_STATS_RL:               GtNm1 (DYNAMICS)  min=  0.00000000000000E+00
DEBUG_STATS_RL:               GtNm1 (DYNAMICS)  max=  0.00000000000000E+00
DEBUG_STATS_RL:               GtNm1 (DYNAMICS) mean=  0.00000000000000E+00
DEBUG_STATS_RL:               GtNm1 (DYNAMICS) S.D.=  0.00000000000000E+00
DEBUG_STATS_RL:               GsNm1 (DYNAMICS)  min=  0.00000000000000E+00
DEBUG_STATS_RL:               GsNm1 (DYNAMICS)  max=  0.00000000000000E+00
DEBUG_STATS_RL:               GsNm1 (DYNAMICS) mean=  0.00000000000000E+00
DEBUG_STATS_RL:               GsNm1 (DYNAMICS) S.D.=  0.00000000000000E+00
DEBUG_STATS_RL:    cg2d_b (SOLVE_FOR_PRESSURE)  min= -7.47095948274189E+03
DEBUG_STATS_RL:    cg2d_b (SOLVE_FOR_PRESSURE)  max=  2.18029189648808E+03
DEBUG_STATS_RL:    cg2d_b (SOLVE_FOR_PRESSURE) mean=  3.55081889817181E-13
DEBUG_STATS_RL:    cg2d_b (SOLVE_FOR_PRESSURE) S.D.=  9.11464014140570E+02
 cg2d: Sum(rhs),rhsMax =   7.41073868937292E-15  1.20244643428825E+00
DEBUG_STATS_RL:    cg2d_x (SOLVE_FOR_PRESSURE)  min= -1.27317826454455E+00
DEBUG_STATS_RL:    cg2d_x (SOLVE_FOR_PRESSURE)  max=  3.19622316797641E+00
DEBUG_STATS_RL:    cg2d_x (SOLVE_FOR_PRESSURE) mean= -2.95294169356156E-02
DEBUG_STATS_RL:    cg2d_x (SOLVE_FOR_PRESSURE) S.D.=  7.40273720373463E-01
DEBUG_STATS_RL:          Uvel (THERMODYNAMICS)  min= -3.64296443204151E-02
DEBUG_STATS_RL:          Uvel (THERMODYNAMICS)  max=  8.91662112566488E-02
DEBUG_STATS_RL:          Uvel (THERMODYNAMICS) mean=  5.18186102505404E-03
DEBUG_STATS_RL:          Uvel (THERMODYNAMICS) S.D.=  1.36791834404110E-02
DEBUG_STATS_RL:          Vvel (THERMODYNAMICS)  min= -8.48427067731376E-02
DEBUG_STATS_RL:          Vvel (THERMODYNAMICS)  max=  7.15709637633452E-02
DEBUG_STATS_RL:          Vvel (THERMODYNAMICS) mean= -6.25663991249830E-04
DEBUG_STATS_RL:          Vvel (THERMODYNAMICS) S.D.=  1.65568599029344E-02
DEBUG_STATS_RL:          Wvel (THERMODYNAMICS)  min= -2.02998023749467E-04
DEBUG_STATS_RL:          Wvel (THERMODYNAMICS)  max=  3.07634744219611E-04
DEBUG_STATS_RL:          Wvel (THERMODYNAMICS) mean= -2.14485636604632E-07
DEBUG_STATS_RL:          Wvel (THERMODYNAMICS) S.D.=  2.56514188295230E-05
DEBUG_STATS_RL:         Theta (THERMODYNAMICS)  min= -1.95891909892376E+00
DEBUG_STATS_RL:         Theta (THERMODYNAMICS)  max=  1.32575107273067E+01
DEBUG_STATS_RL:         Theta (THERMODYNAMICS) mean=  2.41560973729717E+00
DEBUG_STATS_RL:         Theta (THERMODYNAMICS) S.D.=  2.57506629522921E+00
DEBUG_STATS_RL:          Salt (THERMODYNAMICS)  min=  2.76241835718781E+01
DEBUG_STATS_RL:          Salt (THERMODYNAMICS)  max=  3.54512322319690E+01
DEBUG_STATS_RL:          Salt (THERMODYNAMICS) mean=  3.39367610972820E+01
DEBUG_STATS_RL:          Salt (THERMODYNAMICS) S.D.=  1.15400523729965E+00
DEBUG_STATS_RL:         GtNm1 (THERMODYNAMICS)  min=  0.00000000000000E+00
DEBUG_STATS_RL:         GtNm1 (THERMODYNAMICS)  max=  0.00000000000000E+00
DEBUG_STATS_RL:         GtNm1 (THERMODYNAMICS) mean=  0.00000000000000E+00
DEBUG_STATS_RL:         GtNm1 (THERMODYNAMICS) S.D.=  0.00000000000000E+00
DEBUG_STATS_RL:         GsNm1 (THERMODYNAMICS)  min=  0.00000000000000E+00
DEBUG_STATS_RL:         GsNm1 (THERMODYNAMICS)  max=  0.00000000000000E+00
DEBUG_STATS_RL:         GsNm1 (THERMODYNAMICS) mean=  0.00000000000000E+00
DEBUG_STATS_RL:         GsNm1 (THERMODYNAMICS) S.D.=  0.00000000000000E+00
(PID.TID 0000.0001)  MDS_WRITE_FIELD: it,rec,kS,kL,kH=       1     6   1   1   1 file=m_sst_step.0000000001
(PID.TID 0000.0001)  MDS_READ_FIELD: opening global file: xx_atemp.effective.0000000001.data
(PID.TID 0000.0001) EXF_SET_FLD: processing field "climsss",  file: SSS_monthly.labsea1979
(PID.TID 0000.0001) EXF_SET_FLD:   myIter, count0, count1:         5      1      2
(PID.TID 0000.0001) EXF_SET_FLD:   first, changed, fac:   F   F    0.49316939890710387
(PID.TID 0000.0001) EXF_SET_FLD: processing field "uwind",  file: u10m.labsea1979
(PID.TID 0000.0001) EXF_SET_FLD:   myIter, count0, count1:         5      1      2
(PID.TID 0000.0001) EXF_SET_FLD:   first, changed, fac:   F   F    0.49316939890710387
(PID.TID 0000.0001) EXF_SET_FLD: processing field "vwind",  file: v10m.labsea1979
(PID.TID 0000.0001) EXF_SET_FLD:   myIter, count0, count1:         5      1      2
(PID.TID 0000.0001) EXF_SET_FLD:   first, changed, fac:   F   F    0.49316939890710387
(PID.TID 0000.0001) EXF_SET_FLD: processing field "atemp",  file: tair.labsea1979
(PID.TID 0000.0001) EXF_SET_FLD:   myIter, count0, count1:         5      1      2
(PID.TID 0000.0001) EXF_SET_FLD:   first, changed, fac:   F   F    0.49316939890710387
(PID.TID 0000.0001) EXF_SET_FLD: processing field "aqh",  file: qa.labsea1979
(PID.TID 0000.0001) EXF_SET_FLD:   myIter, count0, count1:         5      1      2
(PID.TID 0000.0001) EXF_SET_FLD:   first, changed, fac:   F   F    0.49316939890710387
(PID.TID 0000.0001) EXF_SET_FLD: processing field "precip",  file: prate.labsea1979
(PID.TID 0000.0001) EXF_SET_FLD:   myIter, count0, count1:         5      1      2
(PID.TID 0000.0001) EXF_SET_FLD:   first, changed, fac:   F   F    0.49316939890710387
(PID.TID 0000.0001) EXF_SET_FLD: processing field "swdown",  file: fsh.labsea1979
(PID.TID 0000.0001) EXF_SET_FLD:   myIter, count0, count1:         5      1      2
(PID.TID 0000.0001) EXF_SET_FLD:   first, changed, fac:   F   F    0.49316939890710387
(PID.TID 0000.0001) EXF_SET_FLD: processing field "lwdown",  file: flo.labsea1979
(PID.TID 0000.0001) EXF_SET_FLD:   myIter, count0, count1:         5      1      2
(PID.TID 0000.0001) EXF_SET_FLD:   first, changed, fac:   F   F    0.49316939890710387
DEBUG_STATS_RL: Uice pre  iter (SEAICE_LSR  1)  min= -9.02121933428110E-03
DEBUG_STATS_RL: Uice pre  iter (SEAICE_LSR  1)  max=  2.19445684647109E-01
DEBUG_STATS_RL: Uice pre  iter (SEAICE_LSR  1) mean=  6.96639305504900E-02
DEBUG_STATS_RL: Uice pre  iter (SEAICE_LSR  1) S.D.=  7.25590715278669E-02
DEBUG_STATS_RL: Vice pre  iter (SEAICE_LSR  1)  min= -1.73112057819566E-01
DEBUG_STATS_RL: Vice pre  iter (SEAICE_LSR  1)  max=  1.05174802576008E-01
DEBUG_STATS_RL: Vice pre  iter (SEAICE_LSR  1) mean= -3.44957645454810E-02
DEBUG_STATS_RL: Vice pre  iter (SEAICE_LSR  1) S.D.=  5.17027322841851E-02
DEBUG_STATS_RL: Uice pre  iter (SEAICE_LSR  2)  min= -9.93295031152138E-03
DEBUG_STATS_RL: Uice pre  iter (SEAICE_LSR  2)  max=  2.37649472779152E-01
DEBUG_STATS_RL: Uice pre  iter (SEAICE_LSR  2) mean=  7.08960993525269E-02
DEBUG_STATS_RL: Uice pre  iter (SEAICE_LSR  2) S.D.=  7.51814019582296E-02
DEBUG_STATS_RL: Vice pre  iter (SEAICE_LSR  2)  min= -1.73458139241629E-01
DEBUG_STATS_RL: Vice pre  iter (SEAICE_LSR  2)  max=  1.02503634704982E-01
DEBUG_STATS_RL: Vice pre  iter (SEAICE_LSR  2) mean= -3.89801386768412E-02
DEBUG_STATS_RL: Vice pre  iter (SEAICE_LSR  2) S.D.=  5.44920749394718E-02
DEBUG_STATS_RL:                EtaN (DYNAMICS)  min= -1.29709672821280E-01
DEBUG_STATS_RL:                EtaN (DYNAMICS)  max=  3.25626876398428E-01
DEBUG_STATS_RL:                EtaN (DYNAMICS) mean= -3.00841690122006E-03
DEBUG_STATS_RL:                EtaN (DYNAMICS) S.D.=  7.54180814594587E-02
DEBUG_STATS_RL:                Uvel (DYNAMICS)  min= -3.64296443204151E-02
DEBUG_STATS_RL:                Uvel (DYNAMICS)  max=  8.91662112566488E-02
DEBUG_STATS_RL:                Uvel (DYNAMICS) mean=  5.18186102505404E-03
DEBUG_STATS_RL:                Uvel (DYNAMICS) S.D.=  1.36791834404110E-02
DEBUG_STATS_RL:                Vvel (DYNAMICS)  min= -8.48427067731376E-02
DEBUG_STATS_RL:                Vvel (DYNAMICS)  max=  7.15709637633452E-02
DEBUG_STATS_RL:                Vvel (DYNAMICS) mean= -6.25663991249830E-04
DEBUG_STATS_RL:                Vvel (DYNAMICS) S.D.=  1.65568599029344E-02
DEBUG_STATS_RL:                Wvel (DYNAMICS)  min= -2.02998023749467E-04
DEBUG_STATS_RL:                Wvel (DYNAMICS)  max=  3.07634744219611E-04
DEBUG_STATS_RL:                Wvel (DYNAMICS) mean= -2.14485636604632E-07
DEBUG_STATS_RL:                Wvel (DYNAMICS) S.D.=  2.56514188295230E-05
DEBUG_STATS_RL:               Theta (DYNAMICS)  min= -1.95891909892376E+00
DEBUG_STATS_RL:               Theta (DYNAMICS)  max=  1.32575107273067E+01
DEBUG_STATS_RL:               Theta (DYNAMICS) mean=  2.41560973729717E+00
DEBUG_STATS_RL:               Theta (DYNAMICS) S.D.=  2.57506629522921E+00
DEBUG_STATS_RL:                Salt (DYNAMICS)  min=  2.76241835718781E+01
DEBUG_STATS_RL:                Salt (DYNAMICS)  max=  3.54512322319690E+01
DEBUG_STATS_RL:                Salt (DYNAMICS) mean=  3.39367610972820E+01
DEBUG_STATS_RL:                Salt (DYNAMICS) S.D.=  1.15400523729965E+00
DEBUG_STATS_RL:                  Gu (DYNAMICS)  min= -3.40661284877342E-02
DEBUG_STATS_RL:                  Gu (DYNAMICS)  max=  1.09592409505602E-01
DEBUG_STATS_RL:                  Gu (DYNAMICS) mean=  3.43340148230247E-03
DEBUG_STATS_RL:                  Gu (DYNAMICS) S.D.=  1.52106643070947E-02
DEBUG_STATS_RL:                  Gv (DYNAMICS)  min= -1.19743996000497E-01
DEBUG_STATS_RL:                  Gv (DYNAMICS)  max=  5.31755908727338E-02
DEBUG_STATS_RL:                  Gv (DYNAMICS) mean= -6.43607759844559E-03
DEBUG_STATS_RL:                  Gv (DYNAMICS) S.D.=  1.74595586593176E-02
DEBUG_STATS_RL:               GuNm1 (DYNAMICS)  min= -2.94347299884288E-07
DEBUG_STATS_RL:               GuNm1 (DYNAMICS)  max=  1.78770581560382E-07
DEBUG_STATS_RL:               GuNm1 (DYNAMICS) mean= -3.06311171945473E-09
DEBUG_STATS_RL:               GuNm1 (DYNAMICS) S.D.=  4.19614199163256E-08
DEBUG_STATS_RL:               GvNm1 (DYNAMICS)  min= -1.82273635415879E-07
DEBUG_STATS_RL:               GvNm1 (DYNAMICS)  max=  1.24273330978307E-07
DEBUG_STATS_RL:               GvNm1 (DYNAMICS) mean= -1.05360009951934E-09
DEBUG_STATS_RL:               GvNm1 (DYNAMICS) S.D.=  3.58773704868006E-08
DEBUG_STATS_RL:               GtNm1 (DYNAMICS)  min=  0.00000000000000E+00
DEBUG_STATS_RL:               GtNm1 (DYNAMICS)  max=  0.00000000000000E+00
DEBUG_STATS_RL:               GtNm1 (DYNAMICS) mean=  0.00000000000000E+00
DEBUG_STATS_RL:               GtNm1 (DYNAMICS) S.D.=  0.00000000000000E+00
DEBUG_STATS_RL:               GsNm1 (DYNAMICS)  min=  0.00000000000000E+00
DEBUG_STATS_RL:               GsNm1 (DYNAMICS)  max=  0.00000000000000E+00
DEBUG_STATS_RL:               GsNm1 (DYNAMICS) mean=  0.00000000000000E+00
DEBUG_STATS_RL:               GsNm1 (DYNAMICS) S.D.=  0.00000000000000E+00
DEBUG_STATS_RL:    cg2d_b (SOLVE_FOR_PRESSURE)  min= -7.45833771571445E+03
DEBUG_STATS_RL:    cg2d_b (SOLVE_FOR_PRESSURE)  max=  2.17494903027785E+03
DEBUG_STATS_RL:    cg2d_b (SOLVE_FOR_PRESSURE) mean=  4.54936828949334E-13
DEBUG_STATS_RL:    cg2d_b (SOLVE_FOR_PRESSURE) S.D.=  9.06377010650299E+02
 cg2d: Sum(rhs),rhsMax =   9.89139326001975E-15  1.20041496847832E+00
DEBUG_STATS_RL:    cg2d_x (SOLVE_FOR_PRESSURE)  min= -1.23196163368187E+00
DEBUG_STATS_RL:    cg2d_x (SOLVE_FOR_PRESSURE)  max=  3.23727429689783E+00
DEBUG_STATS_RL:    cg2d_x (SOLVE_FOR_PRESSURE) mean= -3.45194761147598E-02
DEBUG_STATS_RL:    cg2d_x (SOLVE_FOR_PRESSURE) S.D.=  7.10912240392911E-01
DEBUG_STATS_RL:          Uvel (THERMODYNAMICS)  min= -3.59096386964087E-02
DEBUG_STATS_RL:          Uvel (THERMODYNAMICS)  max=  1.01288605318195E-01
DEBUG_STATS_RL:          Uvel (THERMODYNAMICS) mean=  5.06442107691716E-03
DEBUG_STATS_RL:          Uvel (THERMODYNAMICS) S.D.=  1.40087544095629E-02
DEBUG_STATS_RL:          Vvel (THERMODYNAMICS)  min= -1.10756263988798E-01
DEBUG_STATS_RL:          Vvel (THERMODYNAMICS)  max=  7.07208418107751E-02
DEBUG_STATS_RL:          Vvel (THERMODYNAMICS) mean= -2.17557054828524E-03
DEBUG_STATS_RL:          Vvel (THERMODYNAMICS) S.D.=  1.80912833066432E-02
DEBUG_STATS_RL:          Wvel (THERMODYNAMICS)  min= -2.43811460414305E-04
DEBUG_STATS_RL:          Wvel (THERMODYNAMICS)  max=  3.28816353261780E-04
DEBUG_STATS_RL:          Wvel (THERMODYNAMICS) mean= -1.37923543342562E-07
DEBUG_STATS_RL:          Wvel (THERMODYNAMICS) S.D.=  2.75149300864466E-05
DEBUG_STATS_RL:         Theta (THERMODYNAMICS)  min= -1.96015217723734E+00
DEBUG_STATS_RL:         Theta (THERMODYNAMICS)  max=  1.32512671183369E+01
DEBUG_STATS_RL:         Theta (THERMODYNAMICS) mean=  2.41531606071968E+00
DEBUG_STATS_RL:         Theta (THERMODYNAMICS) S.D.=  2.57483151675911E+00
DEBUG_STATS_RL:          Salt (THERMODYNAMICS)  min=  2.76290307531745E+01
DEBUG_STATS_RL:          Salt (THERMODYNAMICS)  max=  3.54512307060718E+01
DEBUG_STATS_RL:          Salt (THERMODYNAMICS) mean=  3.39367446276231E+01
DEBUG_STATS_RL:          Salt (THERMODYNAMICS) S.D.=  1.15382313156996E+00
DEBUG_STATS_RL:         GtNm1 (THERMODYNAMICS)  min=  0.00000000000000E+00
DEBUG_STATS_RL:         GtNm1 (THERMODYNAMICS)  max=  0.00000000000000E+00
DEBUG_STATS_RL:         GtNm1 (THERMODYNAMICS) mean=  0.00000000000000E+00
DEBUG_STATS_RL:         GtNm1 (THERMODYNAMICS) S.D.=  0.00000000000000E+00
DEBUG_STATS_RL:         GsNm1 (THERMODYNAMICS)  min=  0.00000000000000E+00
DEBUG_STATS_RL:         GsNm1 (THERMODYNAMICS)  max=  0.00000000000000E+00
DEBUG_STATS_RL:         GsNm1 (THERMODYNAMICS) mean=  0.00000000000000E+00
DEBUG_STATS_RL:         GsNm1 (THERMODYNAMICS) S.D.=  0.00000000000000E+00
(PID.TID 0000.0001)  MDS_WRITE_FIELD: it,rec,kS,kL,kH=       1     7   1   1   1 file=m_sst_step.0000000001
(PID.TID 0000.0001)  MDS_READ_FIELD: opening global file: xx_atemp.effective.0000000001.data
(PID.TID 0000.0001) EXF_SET_FLD: processing field "climsss",  file: SSS_monthly.labsea1979
(PID.TID 0000.0001) EXF_SET_FLD:   myIter, count0, count1:         6      1      2
(PID.TID 0000.0001) EXF_SET_FLD:   first, changed, fac:   F   F    0.49180327868852458
(PID.TID 0000.0001) EXF_SET_FLD: processing field "uwind",  file: u10m.labsea1979
(PID.TID 0000.0001) EXF_SET_FLD:   myIter, count0, count1:         6      1      2
(PID.TID 0000.0001) EXF_SET_FLD:   first, changed, fac:   F   F    0.49180327868852458
(PID.TID 0000.0001) EXF_SET_FLD: processing field "vwind",  file: v10m.labsea1979
(PID.TID 0000.0001) EXF_SET_FLD:   myIter, count0, count1:         6      1      2
(PID.TID 0000.0001) EXF_SET_FLD:   first, changed, fac:   F   F    0.49180327868852458
(PID.TID 0000.0001) EXF_SET_FLD: processing field "atemp",  file: tair.labsea1979
(PID.TID 0000.0001) EXF_SET_FLD:   myIter, count0, count1:         6      1      2
(PID.TID 0000.0001) EXF_SET_FLD:   first, changed, fac:   F   F    0.49180327868852458
(PID.TID 0000.0001) EXF_SET_FLD: processing field "aqh",  file: qa.labsea1979
(PID.TID 0000.0001) EXF_SET_FLD:   myIter, count0, count1:         6      1      2
(PID.TID 0000.0001) EXF_SET_FLD:   first, changed, fac:   F   F    0.49180327868852458
(PID.TID 0000.0001) EXF_SET_FLD: processing field "precip",  file: prate.labsea1979
(PID.TID 0000.0001) EXF_SET_FLD:   myIter, count0, count1:         6      1      2
(PID.TID 0000.0001) EXF_SET_FLD:   first, changed, fac:   F   F    0.49180327868852458
(PID.TID 0000.0001) EXF_SET_FLD: processing field "swdown",  file: fsh.labsea1979
(PID.TID 0000.0001) EXF_SET_FLD:   myIter, count0, count1:         6      1      2
(PID.TID 0000.0001) EXF_SET_FLD:   first, changed, fac:   F   F    0.49180327868852458
(PID.TID 0000.0001) EXF_SET_FLD: processing field "lwdown",  file: flo.labsea1979
(PID.TID 0000.0001) EXF_SET_FLD:   myIter, count0, count1:         6      1      2
(PID.TID 0000.0001) EXF_SET_FLD:   first, changed, fac:   F   F    0.49180327868852458
DEBUG_STATS_RL: Uice pre  iter (SEAICE_LSR  1)  min= -1.19106759196603E-02
DEBUG_STATS_RL: Uice pre  iter (SEAICE_LSR  1)  max=  2.40859973799500E-01
DEBUG_STATS_RL: Uice pre  iter (SEAICE_LSR  1) mean=  7.02597534863227E-02
DEBUG_STATS_RL: Uice pre  iter (SEAICE_LSR  1) S.D.=  7.57773428258243E-02
DEBUG_STATS_RL: Vice pre  iter (SEAICE_LSR  1)  min= -1.74132342678210E-01
DEBUG_STATS_RL: Vice pre  iter (SEAICE_LSR  1)  max=  9.66358613081403E-02
DEBUG_STATS_RL: Vice pre  iter (SEAICE_LSR  1) mean= -4.28491368242523E-02
DEBUG_STATS_RL: Vice pre  iter (SEAICE_LSR  1) S.D.=  5.63763392291326E-02
DEBUG_STATS_RL: Uice pre  iter (SEAICE_LSR  2)  min= -1.30564509125741E-02
DEBUG_STATS_RL: Uice pre  iter (SEAICE_LSR  2)  max=  2.47901039964918E-01
DEBUG_STATS_RL: Uice pre  iter (SEAICE_LSR  2) mean=  6.80717062412335E-02
DEBUG_STATS_RL: Uice pre  iter (SEAICE_LSR  2) S.D.=  7.48548542541216E-02
DEBUG_STATS_RL: Vice pre  iter (SEAICE_LSR  2)  min= -1.68314830999125E-01
DEBUG_STATS_RL: Vice pre  iter (SEAICE_LSR  2)  max=  8.87290074915904E-02
DEBUG_STATS_RL: Vice pre  iter (SEAICE_LSR  2) mean= -4.61137817409175E-02
DEBUG_STATS_RL: Vice pre  iter (SEAICE_LSR  2) S.D.=  5.74118961796110E-02
DEBUG_STATS_RL:                EtaN (DYNAMICS)  min= -1.25510578434520E-01
DEBUG_STATS_RL:                EtaN (DYNAMICS)  max=  3.29809109672137E-01
DEBUG_STATS_RL:                EtaN (DYNAMICS) mean= -3.51679735469658E-03
DEBUG_STATS_RL:                EtaN (DYNAMICS) S.D.=  7.24267737471892E-02
DEBUG_STATS_RL:                Uvel (DYNAMICS)  min= -3.59096386964087E-02
DEBUG_STATS_RL:                Uvel (DYNAMICS)  max=  1.01288605318195E-01
DEBUG_STATS_RL:                Uvel (DYNAMICS) mean=  5.06442107691716E-03
DEBUG_STATS_RL:                Uvel (DYNAMICS) S.D.=  1.40087544095629E-02
DEBUG_STATS_RL:                Vvel (DYNAMICS)  min= -1.10756263988798E-01
DEBUG_STATS_RL:                Vvel (DYNAMICS)  max=  7.07208418107751E-02
DEBUG_STATS_RL:                Vvel (DYNAMICS) mean= -2.17557054828524E-03
DEBUG_STATS_RL:                Vvel (DYNAMICS) S.D.=  1.80912833066432E-02
DEBUG_STATS_RL:                Wvel (DYNAMICS)  min= -2.43811460414305E-04
DEBUG_STATS_RL:                Wvel (DYNAMICS)  max=  3.28816353261780E-04
DEBUG_STATS_RL:                Wvel (DYNAMICS) mean= -1.37923543342562E-07
DEBUG_STATS_RL:                Wvel (DYNAMICS) S.D.=  2.75149300864466E-05
DEBUG_STATS_RL:               Theta (DYNAMICS)  min= -1.96015217723734E+00
DEBUG_STATS_RL:               Theta (DYNAMICS)  max=  1.32512671183369E+01
DEBUG_STATS_RL:               Theta (DYNAMICS) mean=  2.41531606071968E+00
DEBUG_STATS_RL:               Theta (DYNAMICS) S.D.=  2.57483151675911E+00
DEBUG_STATS_RL:                Salt (DYNAMICS)  min=  2.76290307531745E+01
DEBUG_STATS_RL:                Salt (DYNAMICS)  max=  3.54512307060718E+01
DEBUG_STATS_RL:                Salt (DYNAMICS) mean=  3.39367446276231E+01
DEBUG_STATS_RL:                Salt (DYNAMICS) S.D.=  1.15382313156996E+00
DEBUG_STATS_RL:                  Gu (DYNAMICS)  min= -4.45840116889237E-02
DEBUG_STATS_RL:                  Gu (DYNAMICS)  max=  1.13252404039500E-01
DEBUG_STATS_RL:                  Gu (DYNAMICS) mean=  3.02808241159822E-03
DEBUG_STATS_RL:                  Gu (DYNAMICS) S.D.=  1.59063121238928E-02
DEBUG_STATS_RL:                  Gv (DYNAMICS)  min= -1.34630447324910E-01
DEBUG_STATS_RL:                  Gv (DYNAMICS)  max=  4.81174890382836E-02
DEBUG_STATS_RL:                  Gv (DYNAMICS) mean= -7.41639241987062E-03
DEBUG_STATS_RL:                  Gv (DYNAMICS) S.D.=  1.85638365104747E-02
DEBUG_STATS_RL:               GuNm1 (DYNAMICS)  min= -3.33271036892892E-07
DEBUG_STATS_RL:               GuNm1 (DYNAMICS)  max=  1.87479663955276E-07
DEBUG_STATS_RL:               GuNm1 (DYNAMICS) mean= -3.31200046770304E-09
DEBUG_STATS_RL:               GuNm1 (DYNAMICS) S.D.=  4.08419141881953E-08
DEBUG_STATS_RL:               GvNm1 (DYNAMICS)  min= -2.04912919624489E-07
DEBUG_STATS_RL:               GvNm1 (DYNAMICS)  max=  1.56710147054418E-07
DEBUG_STATS_RL:               GvNm1 (DYNAMICS) mean= -8.96938696728760E-10
DEBUG_STATS_RL:               GvNm1 (DYNAMICS) S.D.=  3.95873164870919E-08
DEBUG_STATS_RL:               GtNm1 (DYNAMICS)  min=  0.00000000000000E+00
DEBUG_STATS_RL:               GtNm1 (DYNAMICS)  max=  0.00000000000000E+00
DEBUG_STATS_RL:               GtNm1 (DYNAMICS) mean=  0.00000000000000E+00
DEBUG_STATS_RL:               GtNm1 (DYNAMICS) S.D.=  0.00000000000000E+00
DEBUG_STATS_RL:               GsNm1 (DYNAMICS)  min=  0.00000000000000E+00
DEBUG_STATS_RL:               GsNm1 (DYNAMICS)  max=  0.00000000000000E+00
DEBUG_STATS_RL:               GsNm1 (DYNAMICS) mean=  0.00000000000000E+00
DEBUG_STATS_RL:               GsNm1 (DYNAMICS) S.D.=  0.00000000000000E+00
DEBUG_STATS_RL:    cg2d_b (SOLVE_FOR_PRESSURE)  min= -7.43169656861000E+03
DEBUG_STATS_RL:    cg2d_b (SOLVE_FOR_PRESSURE)  max=  2.17598296942655E+03
DEBUG_STATS_RL:    cg2d_b (SOLVE_FOR_PRESSURE) mean=  5.36791352108897E-13
DEBUG_STATS_RL:    cg2d_b (SOLVE_FOR_PRESSURE) S.D.=  9.02750100849676E+02
 cg2d: Sum(rhs),rhsMax =   1.16850973341798E-14  1.19612709187892E+00
DEBUG_STATS_RL:    cg2d_x (SOLVE_FOR_PRESSURE)  min= -1.18794061890947E+00
DEBUG_STATS_RL:    cg2d_x (SOLVE_FOR_PRESSURE)  max=  3.24511049575640E+00
DEBUG_STATS_RL:    cg2d_x (SOLVE_FOR_PRESSURE) mean= -3.88654400025166E-02
DEBUG_STATS_RL:    cg2d_x (SOLVE_FOR_PRESSURE) S.D.=  6.81167535252512E-01
DEBUG_STATS_RL:          Uvel (THERMODYNAMICS)  min= -3.57601727934294E-02
DEBUG_STATS_RL:          Uvel (THERMODYNAMICS)  max=  1.04775938290593E-01
DEBUG_STATS_RL:          Uvel (THERMODYNAMICS) mean=  4.39725630125388E-03
DEBUG_STATS_RL:          Uvel (THERMODYNAMICS) S.D.=  1.39028540310301E-02
DEBUG_STATS_RL:          Vvel (THERMODYNAMICS)  min= -1.27584762387763E-01
DEBUG_STATS_RL:          Vvel (THERMODYNAMICS)  max=  6.50083276838882E-02
DEBUG_STATS_RL:          Vvel (THERMODYNAMICS) mean= -3.36887217582174E-03
DEBUG_STATS_RL:          Vvel (THERMODYNAMICS) S.D.=  1.85890275650252E-02
DEBUG_STATS_RL:          Wvel (THERMODYNAMICS)  min= -2.67954696014338E-04
DEBUG_STATS_RL:          Wvel (THERMODYNAMICS)  max=  3.29804232734354E-04
DEBUG_STATS_RL:          Wvel (THERMODYNAMICS) mean= -4.85616750766289E-08
DEBUG_STATS_RL:          Wvel (THERMODYNAMICS) S.D.=  2.84164537902825E-05
DEBUG_STATS_RL:         Theta (THERMODYNAMICS)  min= -1.95963016104372E+00
DEBUG_STATS_RL:         Theta (THERMODYNAMICS)  max=  1.32396343409662E+01
DEBUG_STATS_RL:         Theta (THERMODYNAMICS) mean=  2.41506584132490E+00
DEBUG_STATS_RL:         Theta (THERMODYNAMICS) S.D.=  2.57443936967394E+00
DEBUG_STATS_RL:          Salt (THERMODYNAMICS)  min=  2.76338867569799E+01
DEBUG_STATS_RL:          Salt (THERMODYNAMICS)  max=  3.54511617149686E+01
DEBUG_STATS_RL:          Salt (THERMODYNAMICS) mean=  3.39367496241619E+01
DEBUG_STATS_RL:          Salt (THERMODYNAMICS) S.D.=  1.15359229307829E+00
DEBUG_STATS_RL:         GtNm1 (THERMODYNAMICS)  min=  0.00000000000000E+00
DEBUG_STATS_RL:         GtNm1 (THERMODYNAMICS)  max=  0.00000000000000E+00
DEBUG_STATS_RL:         GtNm1 (THERMODYNAMICS) mean=  0.00000000000000E+00
DEBUG_STATS_RL:         GtNm1 (THERMODYNAMICS) S.D.=  0.00000000000000E+00
DEBUG_STATS_RL:         GsNm1 (THERMODYNAMICS)  min=  0.00000000000000E+00
DEBUG_STATS_RL:         GsNm1 (THERMODYNAMICS)  max=  0.00000000000000E+00
DEBUG_STATS_RL:         GsNm1 (THERMODYNAMICS) mean=  0.00000000000000E+00
DEBUG_STATS_RL:         GsNm1 (THERMODYNAMICS) S.D.=  0.00000000000000E+00
(PID.TID 0000.0001)  MDS_WRITE_FIELD: it,rec,kS,kL,kH=       1     8   1   1   1 file=m_sst_step.0000000001
(PID.TID 0000.0001)  MDS_READ_FIELD: opening global file: xx_atemp.effective.0000000001.data
(PID.TID 0000.0001) EXF_SET_FLD: processing field "climsss",  file: SSS_monthly.labsea1979
(PID.TID 0000.0001) EXF_SET_FLD:   myIter, count0, count1:         7      1      2
(PID.TID 0000.0001) EXF_SET_FLD:   first, changed, fac:   F   F    0.49043715846994540
(PID.TID 0000.0001) EXF_SET_FLD: processing field "uwind",  file: u10m.labsea1979
(PID.TID 0000.0001) EXF_SET_FLD:   myIter, count0, count1:         7      1      2
(PID.TID 0000.0001) EXF_SET_FLD:   first, changed, fac:   F   F    0.49043715846994540
(PID.TID 0000.0001) EXF_SET_FLD: processing field "vwind",  file: v10m.labsea1979
(PID.TID 0000.0001) EXF_SET_FLD:   myIter, count0, count1:         7      1      2
(PID.TID 0000.0001) EXF_SET_FLD:   first, changed, fac:   F   F    0.49043715846994540
(PID.TID 0000.0001) EXF_SET_FLD: processing field "atemp",  file: tair.labsea1979
(PID.TID 0000.0001) EXF_SET_FLD:   myIter, count0, count1:         7      1      2
(PID.TID 0000.0001) EXF_SET_FLD:   first, changed, fac:   F   F    0.49043715846994540
(PID.TID 0000.0001) EXF_SET_FLD: processing field "aqh",  file: qa.labsea1979
(PID.TID 0000.0001) EXF_SET_FLD:   myIter, count0, count1:         7      1      2
(PID.TID 0000.0001) EXF_SET_FLD:   first, changed, fac:   F   F    0.49043715846994540
(PID.TID 0000.0001) EXF_SET_FLD: processing field "precip",  file: prate.labsea1979
(PID.TID 0000.0001) EXF_SET_FLD:   myIter, count0, count1:         7      1      2
(PID.TID 0000.0001) EXF_SET_FLD:   first, changed, fac:   F   F    0.49043715846994540
(PID.TID 0000.0001) EXF_SET_FLD: processing field "swdown",  file: fsh.labsea1979
(PID.TID 0000.0001) EXF_SET_FLD:   myIter, count0, count1:         7      1      2
(PID.TID 0000.0001) EXF_SET_FLD:   first, changed, fac:   F   F    0.49043715846994540
(PID.TID 0000.0001) EXF_SET_FLD: processing field "lwdown",  file: flo.labsea1979
(PID.TID 0000.0001) EXF_SET_FLD:   myIter, count0, count1:         7      1      2
(PID.TID 0000.0001) EXF_SET_FLD:   first, changed, fac:   F   F    0.49043715846994540
DEBUG_STATS_RL: Uice pre  iter (SEAICE_LSR  1)  min= -1.54549194525847E-02
DEBUG_STATS_RL: Uice pre  iter (SEAICE_LSR  1)  max=  2.53524286292195E-01
DEBUG_STATS_RL: Uice pre  iter (SEAICE_LSR  1) mean=  6.68799365321832E-02
DEBUG_STATS_RL: Uice pre  iter (SEAICE_LSR  1) S.D.=  7.54478852961427E-02
DEBUG_STATS_RL: Vice pre  iter (SEAICE_LSR  1)  min= -1.68373183021318E-01
DEBUG_STATS_RL: Vice pre  iter (SEAICE_LSR  1)  max=  8.10859368452306E-02
DEBUG_STATS_RL: Vice pre  iter (SEAICE_LSR  1) mean= -4.94905385200809E-02
DEBUG_STATS_RL: Vice pre  iter (SEAICE_LSR  1) S.D.=  5.89447951203328E-02
DEBUG_STATS_RL: Uice pre  iter (SEAICE_LSR  2)  min= -1.68104910559742E-02
DEBUG_STATS_RL: Uice pre  iter (SEAICE_LSR  2)  max=  2.51381266335640E-01
DEBUG_STATS_RL: Uice pre  iter (SEAICE_LSR  2) mean=  6.26056742418460E-02
DEBUG_STATS_RL: Uice pre  iter (SEAICE_LSR  2) S.D.=  7.23215228185671E-02
DEBUG_STATS_RL: Vice pre  iter (SEAICE_LSR  2)  min= -1.70146515867280E-01
DEBUG_STATS_RL: Vice pre  iter (SEAICE_LSR  2)  max=  7.01571636850258E-02
DEBUG_STATS_RL: Vice pre  iter (SEAICE_LSR  2) mean= -5.12009841743656E-02
DEBUG_STATS_RL: Vice pre  iter (SEAICE_LSR  2) S.D.=  5.84735965012105E-02
DEBUG_STATS_RL:                EtaN (DYNAMICS)  min= -1.21025777222938E-01
DEBUG_STATS_RL:                EtaN (DYNAMICS)  max=  3.30607450971555E-01
DEBUG_STATS_RL:                EtaN (DYNAMICS) mean= -3.95955825446399E-03
DEBUG_STATS_RL:                EtaN (DYNAMICS) S.D.=  6.93964235759925E-02
DEBUG_STATS_RL:                Uvel (DYNAMICS)  min= -3.57601727934294E-02
DEBUG_STATS_RL:                Uvel (DYNAMICS)  max=  1.04775938290593E-01
DEBUG_STATS_RL:                Uvel (DYNAMICS) mean=  4.39725630125388E-03
DEBUG_STATS_RL:                Uvel (DYNAMICS) S.D.=  1.39028540310301E-02
DEBUG_STATS_RL:                Vvel (DYNAMICS)  min= -1.27584762387763E-01
DEBUG_STATS_RL:                Vvel (DYNAMICS)  max=  6.50083276838882E-02
DEBUG_STATS_RL:                Vvel (DYNAMICS) mean= -3.36887217582174E-03
DEBUG_STATS_RL:                Vvel (DYNAMICS) S.D.=  1.85890275650252E-02
DEBUG_STATS_RL:                Wvel (DYNAMICS)  min= -2.67954696014338E-04
DEBUG_STATS_RL:                Wvel (DYNAMICS)  max=  3.29804232734354E-04
DEBUG_STATS_RL:                Wvel (DYNAMICS) mean= -4.85616750766289E-08
DEBUG_STATS_RL:                Wvel (DYNAMICS) S.D.=  2.84164537902825E-05
DEBUG_STATS_RL:               Theta (DYNAMICS)  min= -1.95963016104372E+00
DEBUG_STATS_RL:               Theta (DYNAMICS)  max=  1.32396343409662E+01
DEBUG_STATS_RL:               Theta (DYNAMICS) mean=  2.41506584132490E+00
DEBUG_STATS_RL:               Theta (DYNAMICS) S.D.=  2.57443936967394E+00
DEBUG_STATS_RL:                Salt (DYNAMICS)  min=  2.76338867569799E+01
DEBUG_STATS_RL:                Salt (DYNAMICS)  max=  3.54511617149686E+01
DEBUG_STATS_RL:                Salt (DYNAMICS) mean=  3.39367496241619E+01
DEBUG_STATS_RL:                Salt (DYNAMICS) S.D.=  1.15359229307829E+00
DEBUG_STATS_RL:                  Gu (DYNAMICS)  min= -5.18639383662607E-02
DEBUG_STATS_RL:                  Gu (DYNAMICS)  max=  1.08500044377569E-01
DEBUG_STATS_RL:                  Gu (DYNAMICS) mean=  2.22152146943803E-03
DEBUG_STATS_RL:                  Gu (DYNAMICS) S.D.=  1.62488741545324E-02
DEBUG_STATS_RL:                  Gv (DYNAMICS)  min= -1.40216393355447E-01
DEBUG_STATS_RL:                  Gv (DYNAMICS)  max=  4.07135165171704E-02
DEBUG_STATS_RL:                  Gv (DYNAMICS) mean= -7.84361289825903E-03
DEBUG_STATS_RL:                  Gv (DYNAMICS) S.D.=  1.86090017356334E-02
DEBUG_STATS_RL:               GuNm1 (DYNAMICS)  min= -3.48473911940019E-07
DEBUG_STATS_RL:               GuNm1 (DYNAMICS)  max=  1.90416017948052E-07
DEBUG_STATS_RL:               GuNm1 (DYNAMICS) mean= -3.12306477014397E-09
DEBUG_STATS_RL:               GuNm1 (DYNAMICS) S.D.=  4.09417632400134E-08
DEBUG_STATS_RL:               GvNm1 (DYNAMICS)  min= -2.15359173477263E-07
DEBUG_STATS_RL:               GvNm1 (DYNAMICS)  max=  1.82438063099999E-07
DEBUG_STATS_RL:               GvNm1 (DYNAMICS) mean= -6.53519601919294E-10
DEBUG_STATS_RL:               GvNm1 (DYNAMICS) S.D.=  4.16452354556305E-08
DEBUG_STATS_RL:               GtNm1 (DYNAMICS)  min=  0.00000000000000E+00
DEBUG_STATS_RL:               GtNm1 (DYNAMICS)  max=  0.00000000000000E+00
DEBUG_STATS_RL:               GtNm1 (DYNAMICS) mean=  0.00000000000000E+00
DEBUG_STATS_RL:               GtNm1 (DYNAMICS) S.D.=  0.00000000000000E+00
DEBUG_STATS_RL:               GsNm1 (DYNAMICS)  min=  0.00000000000000E+00
DEBUG_STATS_RL:               GsNm1 (DYNAMICS)  max=  0.00000000000000E+00
DEBUG_STATS_RL:               GsNm1 (DYNAMICS) mean=  0.00000000000000E+00
DEBUG_STATS_RL:               GsNm1 (DYNAMICS) S.D.=  0.00000000000000E+00
DEBUG_STATS_RL:    cg2d_b (SOLVE_FOR_PRESSURE)  min= -7.37985604508132E+03
DEBUG_STATS_RL:    cg2d_b (SOLVE_FOR_PRESSURE)  max=  2.18366607280448E+03
DEBUG_STATS_RL:    cg2d_b (SOLVE_FOR_PRESSURE) mean=  4.26704597581799E-13
DEBUG_STATS_RL:    cg2d_b (SOLVE_FOR_PRESSURE) S.D.=  8.98963545839628E+02
 cg2d: Sum(rhs),rhsMax =   9.14893161230168E-15  1.18778339080375E+00
DEBUG_STATS_RL:    cg2d_x (SOLVE_FOR_PRESSURE)  min= -1.13929441834679E+00
DEBUG_STATS_RL:    cg2d_x (SOLVE_FOR_PRESSURE)  max=  3.20616731162181E+00
DEBUG_STATS_RL:    cg2d_x (SOLVE_FOR_PRESSURE) mean= -4.15672442270800E-02
DEBUG_STATS_RL:    cg2d_x (SOLVE_FOR_PRESSURE) S.D.=  6.51074617232438E-01
DEBUG_STATS_RL:          Uvel (THERMODYNAMICS)  min= -4.34802359619417E-02
DEBUG_STATS_RL:          Uvel (THERMODYNAMICS)  max=  9.99752242998817E-02
DEBUG_STATS_RL:          Uvel (THERMODYNAMICS) mean=  3.48264152589971E-03
DEBUG_STATS_RL:          Uvel (THERMODYNAMICS) S.D.=  1.35343125506101E-02
DEBUG_STATS_RL:          Vvel (THERMODYNAMICS)  min= -1.33439207289255E-01
DEBUG_STATS_RL:          Vvel (THERMODYNAMICS)  max=  5.60260700766978E-02
DEBUG_STATS_RL:          Vvel (THERMODYNAMICS) mean= -4.02696574873157E-03
DEBUG_STATS_RL:          Vvel (THERMODYNAMICS) S.D.=  1.80273334212851E-02
DEBUG_STATS_RL:          Wvel (THERMODYNAMICS)  min= -2.73348162229354E-04
DEBUG_STATS_RL:          Wvel (THERMODYNAMICS)  max=  3.13596923283703E-04
DEBUG_STATS_RL:          Wvel (THERMODYNAMICS) mean=  4.73709411313295E-08
DEBUG_STATS_RL:          Wvel (THERMODYNAMICS) S.D.=  2.82661454219214E-05
DEBUG_STATS_RL:         Theta (THERMODYNAMICS)  min= -1.95943609422390E+00
DEBUG_STATS_RL:         Theta (THERMODYNAMICS)  max=  1.32225113409295E+01
DEBUG_STATS_RL:         Theta (THERMODYNAMICS) mean=  2.41480286619417E+00
DEBUG_STATS_RL:         Theta (THERMODYNAMICS) S.D.=  2.57398860030337E+00
DEBUG_STATS_RL:          Salt (THERMODYNAMICS)  min=  2.76387468555707E+01
DEBUG_STATS_RL:          Salt (THERMODYNAMICS)  max=  3.54510358217953E+01
DEBUG_STATS_RL:          Salt (THERMODYNAMICS) mean=  3.39367601804939E+01
DEBUG_STATS_RL:          Salt (THERMODYNAMICS) S.D.=  1.15334890349919E+00
DEBUG_STATS_RL:         GtNm1 (THERMODYNAMICS)  min=  0.00000000000000E+00
DEBUG_STATS_RL:         GtNm1 (THERMODYNAMICS)  max=  0.00000000000000E+00
DEBUG_STATS_RL:         GtNm1 (THERMODYNAMICS) mean=  0.00000000000000E+00
DEBUG_STATS_RL:         GtNm1 (THERMODYNAMICS) S.D.=  0.00000000000000E+00
DEBUG_STATS_RL:         GsNm1 (THERMODYNAMICS)  min=  0.00000000000000E+00
DEBUG_STATS_RL:         GsNm1 (THERMODYNAMICS)  max=  0.00000000000000E+00
DEBUG_STATS_RL:         GsNm1 (THERMODYNAMICS) mean=  0.00000000000000E+00
DEBUG_STATS_RL:         GsNm1 (THERMODYNAMICS) S.D.=  0.00000000000000E+00
(PID.TID 0000.0001)  MDS_WRITE_FIELD: it,rec,kS,kL,kH=       1     9   1   1   1 file=m_sst_step.0000000001
(PID.TID 0000.0001)  MDS_READ_FIELD: opening global file: xx_atemp.effective.0000000001.data
(PID.TID 0000.0001) EXF_SET_FLD: processing field "climsss",  file: SSS_monthly.labsea1979
(PID.TID 0000.0001) EXF_SET_FLD:   myIter, count0, count1:         8      1      2
(PID.TID 0000.0001) EXF_SET_FLD:   first, changed, fac:   F   F    0.48907103825136611
(PID.TID 0000.0001) EXF_SET_FLD: processing field "uwind",  file: u10m.labsea1979
(PID.TID 0000.0001) EXF_SET_FLD:   myIter, count0, count1:         8      1      2
(PID.TID 0000.0001) EXF_SET_FLD:   first, changed, fac:   F   F    0.48907103825136611
(PID.TID 0000.0001) EXF_SET_FLD: processing field "vwind",  file: v10m.labsea1979
(PID.TID 0000.0001) EXF_SET_FLD:   myIter, count0, count1:         8      1      2
(PID.TID 0000.0001) EXF_SET_FLD:   first, changed, fac:   F   F    0.48907103825136611
(PID.TID 0000.0001) EXF_SET_FLD: processing field "atemp",  file: tair.labsea1979
(PID.TID 0000.0001) EXF_SET_FLD:   myIter, count0, count1:         8      1      2
(PID.TID 0000.0001) EXF_SET_FLD:   first, changed, fac:   F   F    0.48907103825136611
(PID.TID 0000.0001) EXF_SET_FLD: processing field "aqh",  file: qa.labsea1979
(PID.TID 0000.0001) EXF_SET_FLD:   myIter, count0, count1:         8      1      2
(PID.TID 0000.0001) EXF_SET_FLD:   first, changed, fac:   F   F    0.48907103825136611
(PID.TID 0000.0001) EXF_SET_FLD: processing field "precip",  file: prate.labsea1979
(PID.TID 0000.0001) EXF_SET_FLD:   myIter, count0, count1:         8      1      2
(PID.TID 0000.0001) EXF_SET_FLD:   first, changed, fac:   F   F    0.48907103825136611
(PID.TID 0000.0001) EXF_SET_FLD: processing field "swdown",  file: fsh.labsea1979
(PID.TID 0000.0001) EXF_SET_FLD:   myIter, count0, count1:         8      1      2
(PID.TID 0000.0001) EXF_SET_FLD:   first, changed, fac:   F   F    0.48907103825136611
(PID.TID 0000.0001) EXF_SET_FLD: processing field "lwdown",  file: flo.labsea1979
(PID.TID 0000.0001) EXF_SET_FLD:   myIter, count0, count1:         8      1      2
(PID.TID 0000.0001) EXF_SET_FLD:   first, changed, fac:   F   F    0.48907103825136611
DEBUG_STATS_RL: Uice pre  iter (SEAICE_LSR  1)  min= -1.95687208100077E-02
DEBUG_STATS_RL: Uice pre  iter (SEAICE_LSR  1)  max=  2.56695252608154E-01
DEBUG_STATS_RL: Uice pre  iter (SEAICE_LSR  1) mean=  6.10102626009645E-02
DEBUG_STATS_RL: Uice pre  iter (SEAICE_LSR  1) S.D.=  7.26515133442405E-02
DEBUG_STATS_RL: Vice pre  iter (SEAICE_LSR  1)  min= -1.74351841640048E-01
DEBUG_STATS_RL: Vice pre  iter (SEAICE_LSR  1)  max=  6.17815719868611E-02
DEBUG_STATS_RL: Vice pre  iter (SEAICE_LSR  1) mean= -5.34332922103098E-02
DEBUG_STATS_RL: Vice pre  iter (SEAICE_LSR  1) S.D.=  5.91879685811180E-02
DEBUG_STATS_RL: Uice pre  iter (SEAICE_LSR  2)  min= -2.10631196463104E-02
DEBUG_STATS_RL: Uice pre  iter (SEAICE_LSR  2)  max=  2.47741110498679E-01
DEBUG_STATS_RL: Uice pre  iter (SEAICE_LSR  2) mean=  5.58563099526128E-02
DEBUG_STATS_RL: Uice pre  iter (SEAICE_LSR  2) S.D.=  6.83562873806618E-02
DEBUG_STATS_RL: Vice pre  iter (SEAICE_LSR  2)  min= -1.71270231909357E-01
DEBUG_STATS_RL: Vice pre  iter (SEAICE_LSR  2)  max=  5.00408736690815E-02
DEBUG_STATS_RL: Vice pre  iter (SEAICE_LSR  2) mean= -5.35471708937643E-02
DEBUG_STATS_RL: Vice pre  iter (SEAICE_LSR  2) S.D.=  5.75117440524982E-02
DEBUG_STATS_RL:                EtaN (DYNAMICS)  min= -1.16069768363298E-01
DEBUG_STATS_RL:                EtaN (DYNAMICS)  max=  3.26639972250479E-01
DEBUG_STATS_RL:                EtaN (DYNAMICS) mean= -4.23481440024858E-03
DEBUG_STATS_RL:                EtaN (DYNAMICS) S.D.=  6.63305979494313E-02
DEBUG_STATS_RL:                Uvel (DYNAMICS)  min= -4.34802359619417E-02
DEBUG_STATS_RL:                Uvel (DYNAMICS)  max=  9.99752242998817E-02
DEBUG_STATS_RL:                Uvel (DYNAMICS) mean=  3.48264152589971E-03
DEBUG_STATS_RL:                Uvel (DYNAMICS) S.D.=  1.35343125506101E-02
DEBUG_STATS_RL:                Vvel (DYNAMICS)  min= -1.33439207289255E-01
DEBUG_STATS_RL:                Vvel (DYNAMICS)  max=  5.60260700766978E-02
DEBUG_STATS_RL:                Vvel (DYNAMICS) mean= -4.02696574873157E-03
DEBUG_STATS_RL:                Vvel (DYNAMICS) S.D.=  1.80273334212851E-02
DEBUG_STATS_RL:                Wvel (DYNAMICS)  min= -2.73348162229354E-04
DEBUG_STATS_RL:                Wvel (DYNAMICS)  max=  3.13596923283703E-04
DEBUG_STATS_RL:                Wvel (DYNAMICS) mean=  4.73709411313295E-08
DEBUG_STATS_RL:                Wvel (DYNAMICS) S.D.=  2.82661454219214E-05
DEBUG_STATS_RL:               Theta (DYNAMICS)  min= -1.95943609422390E+00
DEBUG_STATS_RL:               Theta (DYNAMICS)  max=  1.32225113409295E+01
DEBUG_STATS_RL:               Theta (DYNAMICS) mean=  2.41480286619417E+00
DEBUG_STATS_RL:               Theta (DYNAMICS) S.D.=  2.57398860030337E+00
DEBUG_STATS_RL:                Salt (DYNAMICS)  min=  2.76387468555707E+01
DEBUG_STATS_RL:                Salt (DYNAMICS)  max=  3.54510358217953E+01
DEBUG_STATS_RL:                Salt (DYNAMICS) mean=  3.39367601804939E+01
DEBUG_STATS_RL:                Salt (DYNAMICS) S.D.=  1.15334890349919E+00
DEBUG_STATS_RL:                  Gu (DYNAMICS)  min= -5.98368153075278E-02
DEBUG_STATS_RL:                  Gu (DYNAMICS)  max=  9.68873121299264E-02
DEBUG_STATS_RL:                  Gu (DYNAMICS) mean=  1.30194972945652E-03
DEBUG_STATS_RL:                  Gu (DYNAMICS) S.D.=  1.61566615235426E-02
DEBUG_STATS_RL:                  Gv (DYNAMICS)  min= -1.36271217267993E-01
DEBUG_STATS_RL:                  Gv (DYNAMICS)  max=  3.83573237348527E-02
DEBUG_STATS_RL:                  Gv (DYNAMICS) mean= -7.71950831958596E-03
DEBUG_STATS_RL:                  Gv (DYNAMICS) S.D.=  1.77533563667906E-02
DEBUG_STATS_RL:               GuNm1 (DYNAMICS)  min= -3.40955168137042E-07
DEBUG_STATS_RL:               GuNm1 (DYNAMICS)  max=  1.82641400821314E-07
DEBUG_STATS_RL:               GuNm1 (DYNAMICS) mean= -2.79196714442695E-09
DEBUG_STATS_RL:               GuNm1 (DYNAMICS) S.D.=  4.07453533304221E-08
DEBUG_STATS_RL:               GvNm1 (DYNAMICS)  min= -2.14559263714316E-07
DEBUG_STATS_RL:               GvNm1 (DYNAMICS)  max=  1.94148824775166E-07
DEBUG_STATS_RL:               GvNm1 (DYNAMICS) mean= -4.04169206800575E-10
DEBUG_STATS_RL:               GvNm1 (DYNAMICS) S.D.=  4.19222729579465E-08
DEBUG_STATS_RL:               GtNm1 (DYNAMICS)  min=  0.00000000000000E+00
DEBUG_STATS_RL:               GtNm1 (DYNAMICS)  max=  0.00000000000000E+00
DEBUG_STATS_RL:               GtNm1 (DYNAMICS) mean=  0.00000000000000E+00
DEBUG_STATS_RL:               GtNm1 (DYNAMICS) S.D.=  0.00000000000000E+00
DEBUG_STATS_RL:               GsNm1 (DYNAMICS)  min=  0.00000000000000E+00
DEBUG_STATS_RL:               GsNm1 (DYNAMICS)  max=  0.00000000000000E+00
DEBUG_STATS_RL:               GsNm1 (DYNAMICS) mean=  0.00000000000000E+00
DEBUG_STATS_RL:               GsNm1 (DYNAMICS) S.D.=  0.00000000000000E+00
DEBUG_STATS_RL:    cg2d_b (SOLVE_FOR_PRESSURE)  min= -7.29975929937780E+03
DEBUG_STATS_RL:    cg2d_b (SOLVE_FOR_PRESSURE)  max=  2.19478299507090E+03
DEBUG_STATS_RL:    cg2d_b (SOLVE_FOR_PRESSURE) mean= -5.86813560706408E-13
DEBUG_STATS_RL:    cg2d_b (SOLVE_FOR_PRESSURE) S.D.=  8.94146290227747E+02
 cg2d: Sum(rhs),rhsMax =  -1.30416510923936E-14  1.17489186776822E+00
DEBUG_STATS_RL:    cg2d_x (SOLVE_FOR_PRESSURE)  min= -1.08771127617348E+00
DEBUG_STATS_RL:    cg2d_x (SOLVE_FOR_PRESSURE)  max=  3.12128519797304E+00
DEBUG_STATS_RL:    cg2d_x (SOLVE_FOR_PRESSURE) mean= -4.19588396851782E-02
DEBUG_STATS_RL:    cg2d_x (SOLVE_FOR_PRESSURE) S.D.=  6.20262122263191E-01
DEBUG_STATS_RL:          Uvel (THERMODYNAMICS)  min= -5.12375198243508E-02
DEBUG_STATS_RL:          Uvel (THERMODYNAMICS)  max=  8.84896388076350E-02
DEBUG_STATS_RL:          Uvel (THERMODYNAMICS) mean=  2.55769138538095E-03
DEBUG_STATS_RL:          Uvel (THERMODYNAMICS) S.D.=  1.29064693910483E-02
DEBUG_STATS_RL:          Vvel (THERMODYNAMICS)  min= -1.29344604199479E-01
DEBUG_STATS_RL:          Vvel (THERMODYNAMICS)  max=  4.58633296186262E-02
DEBUG_STATS_RL:          Vvel (THERMODYNAMICS) mean= -4.14107843006494E-03
DEBUG_STATS_RL:          Vvel (THERMODYNAMICS) S.D.=  1.66082836245835E-02
DEBUG_STATS_RL:          Wvel (THERMODYNAMICS)  min= -2.60848991809587E-04
DEBUG_STATS_RL:          Wvel (THERMODYNAMICS)  max=  2.85731299794389E-04
DEBUG_STATS_RL:          Wvel (THERMODYNAMICS) mean=  1.36793666178205E-07
DEBUG_STATS_RL:          Wvel (THERMODYNAMICS) S.D.=  2.70580054557627E-05
DEBUG_STATS_RL:         Theta (THERMODYNAMICS)  min= -1.95932886747261E+00
DEBUG_STATS_RL:         Theta (THERMODYNAMICS)  max=  1.32010303660582E+01
DEBUG_STATS_RL:         Theta (THERMODYNAMICS) mean=  2.41452315045422E+00
DEBUG_STATS_RL:         Theta (THERMODYNAMICS) S.D.=  2.57350774067654E+00
DEBUG_STATS_RL:          Salt (THERMODYNAMICS)  min=  2.76435505129419E+01
DEBUG_STATS_RL:          Salt (THERMODYNAMICS)  max=  3.54508660670958E+01
DEBUG_STATS_RL:          Salt (THERMODYNAMICS) mean=  3.39367749828866E+01
DEBUG_STATS_RL:          Salt (THERMODYNAMICS) S.D.=  1.15309738582427E+00
DEBUG_STATS_RL:         GtNm1 (THERMODYNAMICS)  min=  0.00000000000000E+00
DEBUG_STATS_RL:         GtNm1 (THERMODYNAMICS)  max=  0.00000000000000E+00
DEBUG_STATS_RL:         GtNm1 (THERMODYNAMICS) mean=  0.00000000000000E+00
DEBUG_STATS_RL:         GtNm1 (THERMODYNAMICS) S.D.=  0.00000000000000E+00
DEBUG_STATS_RL:         GsNm1 (THERMODYNAMICS)  min=  0.00000000000000E+00
DEBUG_STATS_RL:         GsNm1 (THERMODYNAMICS)  max=  0.00000000000000E+00
DEBUG_STATS_RL:         GsNm1 (THERMODYNAMICS) mean=  0.00000000000000E+00
DEBUG_STATS_RL:         GsNm1 (THERMODYNAMICS) S.D.=  0.00000000000000E+00
(PID.TID 0000.0001) Did not write pickup because writePickupAtEnd = FALSE
(PID.TID 0000.0001)  MDS_WRITE_FIELD: it,rec,kS,kL,kH=       1    10   1   1   1 file=m_sst_step.0000000001
(PID.TID 0000.0001) gencost # 03
(PID.TID 0000.0001)  MDS_READ_FIELD: opening global file: sigma_sst.bin
(PID.TID 0000.0001)  MDS_READ_FIELD: opening global file: m_sst_step.0000000001.data
(PID.TID 0000.0001)  MDS_READ_FIELD: opening global file: labsea_SST_fields_t10
(PID.TID 0000.0001)  MDS_WRITE_FIELD: it,rec,kS,kL,kH=       1     1   1   1   1 file=misfit_sst
(PID.TID 0000.0001)  MDS_READ_FIELD: opening global file: sigma_sst.bin
(PID.TID 0000.0001)  MDS_READ_FIELD: opening global file: m_sst_step.0000000001.data
(PID.TID 0000.0001)  MDS_READ_FIELD: opening global file: labsea_SST_fields_t10
(PID.TID 0000.0001)  MDS_WRITE_FIELD: it,rec,kS,kL,kH=       1     2   1   1   1 file=misfit_sst
(PID.TID 0000.0001)  MDS_READ_FIELD: opening global file: sigma_sst.bin
(PID.TID 0000.0001)  MDS_READ_FIELD: opening global file: m_sst_step.0000000001.data
(PID.TID 0000.0001)  MDS_READ_FIELD: opening global file: labsea_SST_fields_t10
(PID.TID 0000.0001)  MDS_WRITE_FIELD: it,rec,kS,kL,kH=       1     3   1   1   1 file=misfit_sst
(PID.TID 0000.0001)  MDS_READ_FIELD: opening global file: sigma_sst.bin
(PID.TID 0000.0001)  MDS_READ_FIELD: opening global file: m_sst_step.0000000001.data
(PID.TID 0000.0001)  MDS_READ_FIELD: opening global file: labsea_SST_fields_t10
(PID.TID 0000.0001)  MDS_WRITE_FIELD: it,rec,kS,kL,kH=       1     4   1   1   1 file=misfit_sst
(PID.TID 0000.0001)  MDS_READ_FIELD: opening global file: sigma_sst.bin
(PID.TID 0000.0001)  MDS_READ_FIELD: opening global file: m_sst_step.0000000001.data
(PID.TID 0000.0001)  MDS_READ_FIELD: opening global file: labsea_SST_fields_t10
(PID.TID 0000.0001)  MDS_WRITE_FIELD: it,rec,kS,kL,kH=       1     5   1   1   1 file=misfit_sst
(PID.TID 0000.0001)  MDS_READ_FIELD: opening global file: sigma_sst.bin
(PID.TID 0000.0001)  MDS_READ_FIELD: opening global file: m_sst_step.0000000001.data
(PID.TID 0000.0001)  MDS_READ_FIELD: opening global file: labsea_SST_fields_t10
(PID.TID 0000.0001)  MDS_WRITE_FIELD: it,rec,kS,kL,kH=       1     6   1   1   1 file=misfit_sst
(PID.TID 0000.0001)  MDS_READ_FIELD: opening global file: sigma_sst.bin
(PID.TID 0000.0001)  MDS_READ_FIELD: opening global file: m_sst_step.0000000001.data
(PID.TID 0000.0001)  MDS_READ_FIELD: opening global file: labsea_SST_fields_t10
(PID.TID 0000.0001)  MDS_WRITE_FIELD: it,rec,kS,kL,kH=       1     7   1   1   1 file=misfit_sst
(PID.TID 0000.0001)  MDS_READ_FIELD: opening global file: sigma_sst.bin
(PID.TID 0000.0001)  MDS_READ_FIELD: opening global file: m_sst_step.0000000001.data
(PID.TID 0000.0001)  MDS_READ_FIELD: opening global file: labsea_SST_fields_t10
(PID.TID 0000.0001)  MDS_WRITE_FIELD: it,rec,kS,kL,kH=       1     8   1   1   1 file=misfit_sst
(PID.TID 0000.0001)  MDS_READ_FIELD: opening global file: sigma_sst.bin
(PID.TID 0000.0001)  MDS_READ_FIELD: opening global file: m_sst_step.0000000001.data
(PID.TID 0000.0001)  MDS_READ_FIELD: opening global file: labsea_SST_fields_t10
(PID.TID 0000.0001)  MDS_WRITE_FIELD: it,rec,kS,kL,kH=       1     9   1   1   1 file=misfit_sst
(PID.TID 0000.0001)  MDS_READ_FIELD: opening global file: sigma_sst.bin
(PID.TID 0000.0001)  MDS_READ_FIELD: opening global file: m_sst_step.0000000001.data
(PID.TID 0000.0001)  MDS_READ_FIELD: opening global file: labsea_SST_fields_t10
(PID.TID 0000.0001)  MDS_WRITE_FIELD: it,rec,kS,kL,kH=       1    10   1   1   1 file=misfit_sst
(PID.TID 0000.0001)  MDS_READ_FIELD: opening global file: xx_atemp.0000000001.data
(PID.TID 0000.0001)  MDS_READ_FIELD: opening global file: xx_atemp.0000000001.data
(PID.TID 0000.0001)  MDS_READ_FIELD: opening global file: xx_atemp.0000000001.data
(PID.TID 0000.0001)  MDS_READ_FIELD: opening global file: xx_atemp.0000000001.data
(PID.TID 0000.0001)  MDS_READ_FIELD: opening global file: xx_atemp.0000000001.data
(PID.TID 0000.0001)  MDS_READ_FIELD: opening global file: xx_atemp.0000000001.data
(PID.TID 0000.0001)  MDS_READ_FIELD: opening global file: xx_atemp.0000000001.data
(PID.TID 0000.0001)  MDS_READ_FIELD: opening global file: xx_atemp.0000000001.data
(PID.TID 0000.0001)  MDS_READ_FIELD: opening global file: xx_atemp.0000000001.data
(PID.TID 0000.0001)  MDS_READ_FIELD: opening global file: xx_atemp.0000000001.data
(PID.TID 0000.0001)  MDS_READ_FIELD: opening global file: xx_atemp.0000000001.data
 --> f_ice     = 0.000000000000000D+00
 --> f_smrarea = 0.000000000000000D+00
 --> f_smrarea = 0.000000000000000D+00
 --> f_smrarea = 0.000000000000000D+00
(PID.TID 0000.0001)  --> f_gencost = 0.527453128215447D+04 3
(PID.TID 0000.0001)  --> f_gentim2d = 0.243375020010000D+03 1
(PID.TID 0000.0001)  --> fc               = 0.527453128215447D+04
(PID.TID 0000.0001)  cost_Final: final cost function =  0.527453128215447D+04
(PID.TID 0000.0001) 
(PID.TID 0000.0001)              cost function evaluation finished.
(PID.TID 0000.0001) 
(PID.TID 0000.0001)   early fc =  0.000000000000000D+00
(PID.TID 0000.0001)   local fc =  0.527453128215447D+04
(PID.TID 0000.0001)  global fc =  0.527453128215447D+04
(PID.TID 0000.0001) grdchk perturb(+)fc: fcpertplus  =  5.27453128215447E+03
(PID.TID 0000.0001)  MDS_READ_FIELD: opening global file: xx_atemp.0000000001.data
(PID.TID 0000.0001)  MDS_WRITE_FIELD: it,rec,kS,kL,kH=       1     1   1   1   1 file=xx_atemp.0000000001
(PID.TID 0000.0001)  MDS_READ_FIELD: opening global file: xx_atemp.0000000001.data
(PID.TID 0000.0001)  MDS_WRITE_FIELD: it,rec,kS,kL,kH=       1     1   1   1   1 file=xx_atemp.0000000001
(PID.TID 0000.0001)  MDS_READ_FIELD: opening global file: LevCli_temp.labsea1979
(PID.TID 0000.0001)  MDS_READ_FIELD: opening global file: LevCli_salt.labsea1979
(PID.TID 0000.0001) Start initial hydrostatic pressure computation
(PID.TID 0000.0001) Pressure is predetermined for buoyancyRelation OCEANIC
(PID.TID 0000.0001) 
(PID.TID 0000.0001) CTRL_INIT_REC: Getting record indices for xx_atemp
(PID.TID 0000.0001) CTRL_INIT_REC: Record indices for xx_atemp:
(PID.TID 0000.0001) CTRL_INIT_REC: startrec =          1, endrec =         11
(PID.TID 0000.0001)  MDS_READ_FIELD: opening global file: xx_atemp.0000000001.data
(PID.TID 0000.0001)  MDS_WRITE_FIELD: it,rec,kS,kL,kH=       1     1   1   1   1 file=xx_atemp.effective.0000000001
(PID.TID 0000.0001)  MDS_READ_FIELD: opening global file: xx_atemp.0000000001.data
(PID.TID 0000.0001)  MDS_WRITE_FIELD: it,rec,kS,kL,kH=       1     2   1   1   1 file=xx_atemp.effective.0000000001
(PID.TID 0000.0001)  MDS_READ_FIELD: opening global file: xx_atemp.0000000001.data
(PID.TID 0000.0001)  MDS_WRITE_FIELD: it,rec,kS,kL,kH=       1     3   1   1   1 file=xx_atemp.effective.0000000001
(PID.TID 0000.0001)  MDS_READ_FIELD: opening global file: xx_atemp.0000000001.data
(PID.TID 0000.0001)  MDS_WRITE_FIELD: it,rec,kS,kL,kH=       1     4   1   1   1 file=xx_atemp.effective.0000000001
(PID.TID 0000.0001)  MDS_READ_FIELD: opening global file: xx_atemp.0000000001.data
(PID.TID 0000.0001)  MDS_WRITE_FIELD: it,rec,kS,kL,kH=       1     5   1   1   1 file=xx_atemp.effective.0000000001
(PID.TID 0000.0001)  MDS_READ_FIELD: opening global file: xx_atemp.0000000001.data
(PID.TID 0000.0001)  MDS_WRITE_FIELD: it,rec,kS,kL,kH=       1     6   1   1   1 file=xx_atemp.effective.0000000001
(PID.TID 0000.0001)  MDS_READ_FIELD: opening global file: xx_atemp.0000000001.data
(PID.TID 0000.0001)  MDS_WRITE_FIELD: it,rec,kS,kL,kH=       1     7   1   1   1 file=xx_atemp.effective.0000000001
(PID.TID 0000.0001)  MDS_READ_FIELD: opening global file: xx_atemp.0000000001.data
(PID.TID 0000.0001)  MDS_WRITE_FIELD: it,rec,kS,kL,kH=       1     8   1   1   1 file=xx_atemp.effective.0000000001
(PID.TID 0000.0001)  MDS_READ_FIELD: opening global file: xx_atemp.0000000001.data
(PID.TID 0000.0001)  MDS_WRITE_FIELD: it,rec,kS,kL,kH=       1     9   1   1   1 file=xx_atemp.effective.0000000001
(PID.TID 0000.0001)  MDS_READ_FIELD: opening global file: xx_atemp.0000000001.data
(PID.TID 0000.0001)  MDS_WRITE_FIELD: it,rec,kS,kL,kH=       1    10   1   1   1 file=xx_atemp.effective.0000000001
(PID.TID 0000.0001)  MDS_READ_FIELD: opening global file: xx_atemp.0000000001.data
(PID.TID 0000.0001)  MDS_WRITE_FIELD: it,rec,kS,kL,kH=       1    11   1   1   1 file=xx_atemp.effective.0000000001
(PID.TID 0000.0001)  MDS_READ_FIELD: opening global file: xx_atemp.effective.0000000001.data
(PID.TID 0000.0001)  MDS_READ_FIELD: opening global file: ones_64b.bin
(PID.TID 0000.0001)  MDS_WRITE_FIELD: it,rec,kS,kL,kH=       1     1   1   1   1 file=xx_atemp.effective.0000000001
(PID.TID 0000.0001)  MDS_READ_FIELD: opening global file: xx_atemp.effective.0000000001.data
(PID.TID 0000.0001)  MDS_READ_FIELD: opening global file: ones_64b.bin
(PID.TID 0000.0001)  MDS_WRITE_FIELD: it,rec,kS,kL,kH=       1     2   1   1   1 file=xx_atemp.effective.0000000001
(PID.TID 0000.0001)  MDS_READ_FIELD: opening global file: xx_atemp.effective.0000000001.data
(PID.TID 0000.0001)  MDS_READ_FIELD: opening global file: ones_64b.bin
(PID.TID 0000.0001)  MDS_WRITE_FIELD: it,rec,kS,kL,kH=       1     3   1   1   1 file=xx_atemp.effective.0000000001
(PID.TID 0000.0001)  MDS_READ_FIELD: opening global file: xx_atemp.effective.0000000001.data
(PID.TID 0000.0001)  MDS_READ_FIELD: opening global file: ones_64b.bin
(PID.TID 0000.0001)  MDS_WRITE_FIELD: it,rec,kS,kL,kH=       1     4   1   1   1 file=xx_atemp.effective.0000000001
(PID.TID 0000.0001)  MDS_READ_FIELD: opening global file: xx_atemp.effective.0000000001.data
(PID.TID 0000.0001)  MDS_READ_FIELD: opening global file: ones_64b.bin
(PID.TID 0000.0001)  MDS_WRITE_FIELD: it,rec,kS,kL,kH=       1     5   1   1   1 file=xx_atemp.effective.0000000001
(PID.TID 0000.0001)  MDS_READ_FIELD: opening global file: xx_atemp.effective.0000000001.data
(PID.TID 0000.0001)  MDS_READ_FIELD: opening global file: ones_64b.bin
(PID.TID 0000.0001)  MDS_WRITE_FIELD: it,rec,kS,kL,kH=       1     6   1   1   1 file=xx_atemp.effective.0000000001
(PID.TID 0000.0001)  MDS_READ_FIELD: opening global file: xx_atemp.effective.0000000001.data
(PID.TID 0000.0001)  MDS_READ_FIELD: opening global file: ones_64b.bin
(PID.TID 0000.0001)  MDS_WRITE_FIELD: it,rec,kS,kL,kH=       1     7   1   1   1 file=xx_atemp.effective.0000000001
(PID.TID 0000.0001)  MDS_READ_FIELD: opening global file: xx_atemp.effective.0000000001.data
(PID.TID 0000.0001)  MDS_READ_FIELD: opening global file: ones_64b.bin
(PID.TID 0000.0001)  MDS_WRITE_FIELD: it,rec,kS,kL,kH=       1     8   1   1   1 file=xx_atemp.effective.0000000001
(PID.TID 0000.0001)  MDS_READ_FIELD: opening global file: xx_atemp.effective.0000000001.data
(PID.TID 0000.0001)  MDS_READ_FIELD: opening global file: ones_64b.bin
(PID.TID 0000.0001)  MDS_WRITE_FIELD: it,rec,kS,kL,kH=       1     9   1   1   1 file=xx_atemp.effective.0000000001
(PID.TID 0000.0001)  MDS_READ_FIELD: opening global file: xx_atemp.effective.0000000001.data
(PID.TID 0000.0001)  MDS_READ_FIELD: opening global file: ones_64b.bin
(PID.TID 0000.0001)  MDS_WRITE_FIELD: it,rec,kS,kL,kH=       1    10   1   1   1 file=xx_atemp.effective.0000000001
(PID.TID 0000.0001)  MDS_READ_FIELD: opening global file: xx_atemp.effective.0000000001.data
(PID.TID 0000.0001)  MDS_READ_FIELD: opening global file: ones_64b.bin
(PID.TID 0000.0001)  MDS_WRITE_FIELD: it,rec,kS,kL,kH=       1    11   1   1   1 file=xx_atemp.effective.0000000001
(PID.TID 0000.0001) // =======================================================
(PID.TID 0000.0001) // Model current state
(PID.TID 0000.0001) // =======================================================
(PID.TID 0000.0001) 
(PID.TID 0000.0001)  MDS_WRITE_FIELD: it,rec,kS,kL,kH=       1     1   1   1   1 file=m_sst_step.0000000001
(PID.TID 0000.0001)  MDS_READ_FIELD: opening global file: xx_atemp.effective.0000000001.data
(PID.TID 0000.0001)  MDS_READ_FIELD: opening global file: xx_atemp.effective.0000000001.data
(PID.TID 0000.0001) EXF_SET_FLD: processing field "climsss",  file: SSS_monthly.labsea1979
(PID.TID 0000.0001) EXF_SET_FLD:   myIter, count0, count1:         0      1      2
(PID.TID 0000.0001) EXF_SET_FLD:   first, changed, fac:   T   F    0.50000000000000000
(PID.TID 0000.0001) EXF_SET_FLD: field "climsss", it=         0, loading rec=     1
(PID.TID 0000.0001) EXF_SET_FLD:   from file: "SSS_monthly.labsea1979"
(PID.TID 0000.0001)  MDS_READ_FIELD: opening global file: SSS_monthly.labsea1979
(PID.TID 0000.0001) EXF_SET_FLD: field "climsss", it=         0, loading rec=     2
(PID.TID 0000.0001) EXF_SET_FLD:   from file: "SSS_monthly.labsea1979"
(PID.TID 0000.0001)  MDS_READ_FIELD: opening global file: SSS_monthly.labsea1979
(PID.TID 0000.0001) EXF_SET_FLD: processing field "uwind",  file: u10m.labsea1979
(PID.TID 0000.0001) EXF_SET_FLD:   myIter, count0, count1:         0      1      2
(PID.TID 0000.0001) EXF_SET_FLD:   first, changed, fac:   T   F    0.50000000000000000
(PID.TID 0000.0001) EXF_SET_FLD: field "uwind", it=         0, loading rec=     1
(PID.TID 0000.0001) EXF_SET_FLD:   from file: "u10m.labsea1979"
(PID.TID 0000.0001)  MDS_READ_FIELD: opening global file: u10m.labsea1979
(PID.TID 0000.0001) EXF_SET_FLD: field "uwind", it=         0, loading rec=     2
(PID.TID 0000.0001) EXF_SET_FLD:   from file: "u10m.labsea1979"
(PID.TID 0000.0001)  MDS_READ_FIELD: opening global file: u10m.labsea1979
(PID.TID 0000.0001) EXF_SET_FLD: processing field "vwind",  file: v10m.labsea1979
(PID.TID 0000.0001) EXF_SET_FLD:   myIter, count0, count1:         0      1      2
(PID.TID 0000.0001) EXF_SET_FLD:   first, changed, fac:   T   F    0.50000000000000000
(PID.TID 0000.0001) EXF_SET_FLD: field "vwind", it=         0, loading rec=     1
(PID.TID 0000.0001) EXF_SET_FLD:   from file: "v10m.labsea1979"
(PID.TID 0000.0001)  MDS_READ_FIELD: opening global file: v10m.labsea1979
(PID.TID 0000.0001) EXF_SET_FLD: field "vwind", it=         0, loading rec=     2
(PID.TID 0000.0001) EXF_SET_FLD:   from file: "v10m.labsea1979"
(PID.TID 0000.0001)  MDS_READ_FIELD: opening global file: v10m.labsea1979
(PID.TID 0000.0001) EXF_SET_FLD: processing field "atemp",  file: tair.labsea1979
(PID.TID 0000.0001) EXF_SET_FLD:   myIter, count0, count1:         0      1      2
(PID.TID 0000.0001) EXF_SET_FLD:   first, changed, fac:   T   F    0.50000000000000000
(PID.TID 0000.0001) EXF_SET_FLD: field "atemp", it=         0, loading rec=     1
(PID.TID 0000.0001) EXF_SET_FLD:   from file: "tair.labsea1979"
(PID.TID 0000.0001)  MDS_READ_FIELD: opening global file: tair.labsea1979
(PID.TID 0000.0001) EXF_SET_FLD: field "atemp", it=         0, loading rec=     2
(PID.TID 0000.0001) EXF_SET_FLD:   from file: "tair.labsea1979"
(PID.TID 0000.0001)  MDS_READ_FIELD: opening global file: tair.labsea1979
(PID.TID 0000.0001) EXF_SET_FLD: processing field "aqh",  file: qa.labsea1979
(PID.TID 0000.0001) EXF_SET_FLD:   myIter, count0, count1:         0      1      2
(PID.TID 0000.0001) EXF_SET_FLD:   first, changed, fac:   T   F    0.50000000000000000
(PID.TID 0000.0001) EXF_SET_FLD: field "aqh", it=         0, loading rec=     1
(PID.TID 0000.0001) EXF_SET_FLD:   from file: "qa.labsea1979"
(PID.TID 0000.0001)  MDS_READ_FIELD: opening global file: qa.labsea1979
(PID.TID 0000.0001) EXF_SET_FLD: field "aqh", it=         0, loading rec=     2
(PID.TID 0000.0001) EXF_SET_FLD:   from file: "qa.labsea1979"
(PID.TID 0000.0001)  MDS_READ_FIELD: opening global file: qa.labsea1979
(PID.TID 0000.0001) EXF_SET_FLD: processing field "precip",  file: prate.labsea1979
(PID.TID 0000.0001) EXF_SET_FLD:   myIter, count0, count1:         0      1      2
(PID.TID 0000.0001) EXF_SET_FLD:   first, changed, fac:   T   F    0.50000000000000000
(PID.TID 0000.0001) EXF_SET_FLD: field "precip", it=         0, loading rec=     1
(PID.TID 0000.0001) EXF_SET_FLD:   from file: "prate.labsea1979"
(PID.TID 0000.0001)  MDS_READ_FIELD: opening global file: prate.labsea1979
(PID.TID 0000.0001) EXF_SET_FLD: field "precip", it=         0, loading rec=     2
(PID.TID 0000.0001) EXF_SET_FLD:   from file: "prate.labsea1979"
(PID.TID 0000.0001)  MDS_READ_FIELD: opening global file: prate.labsea1979
(PID.TID 0000.0001) EXF_SET_FLD: processing field "swdown",  file: fsh.labsea1979
(PID.TID 0000.0001) EXF_SET_FLD:   myIter, count0, count1:         0      1      2
(PID.TID 0000.0001) EXF_SET_FLD:   first, changed, fac:   T   F    0.50000000000000000
(PID.TID 0000.0001) EXF_SET_FLD: field "swdown", it=         0, loading rec=     1
(PID.TID 0000.0001) EXF_SET_FLD:   from file: "fsh.labsea1979"
(PID.TID 0000.0001)  MDS_READ_FIELD: opening global file: fsh.labsea1979
(PID.TID 0000.0001) EXF_SET_FLD: field "swdown", it=         0, loading rec=     2
(PID.TID 0000.0001) EXF_SET_FLD:   from file: "fsh.labsea1979"
(PID.TID 0000.0001)  MDS_READ_FIELD: opening global file: fsh.labsea1979
(PID.TID 0000.0001) EXF_SET_FLD: processing field "lwdown",  file: flo.labsea1979
(PID.TID 0000.0001) EXF_SET_FLD:   myIter, count0, count1:         0      1      2
(PID.TID 0000.0001) EXF_SET_FLD:   first, changed, fac:   T   F    0.50000000000000000
(PID.TID 0000.0001) EXF_SET_FLD: field "lwdown", it=         0, loading rec=     1
(PID.TID 0000.0001) EXF_SET_FLD:   from file: "flo.labsea1979"
(PID.TID 0000.0001)  MDS_READ_FIELD: opening global file: flo.labsea1979
(PID.TID 0000.0001) EXF_SET_FLD: field "lwdown", it=         0, loading rec=     2
(PID.TID 0000.0001) EXF_SET_FLD:   from file: "flo.labsea1979"
(PID.TID 0000.0001)  MDS_READ_FIELD: opening global file: flo.labsea1979
DEBUG_STATS_RL: Uice pre  iter (SEAICE_LSR  1)  min=  0.00000000000000E+00
DEBUG_STATS_RL: Uice pre  iter (SEAICE_LSR  1)  max=  0.00000000000000E+00
DEBUG_STATS_RL: Uice pre  iter (SEAICE_LSR  1) mean=  0.00000000000000E+00
DEBUG_STATS_RL: Uice pre  iter (SEAICE_LSR  1) S.D.=  0.00000000000000E+00
DEBUG_STATS_RL: Vice pre  iter (SEAICE_LSR  1)  min=  0.00000000000000E+00
DEBUG_STATS_RL: Vice pre  iter (SEAICE_LSR  1)  max=  0.00000000000000E+00
DEBUG_STATS_RL: Vice pre  iter (SEAICE_LSR  1) mean=  0.00000000000000E+00
DEBUG_STATS_RL: Vice pre  iter (SEAICE_LSR  1) S.D.=  0.00000000000000E+00
DEBUG_STATS_RL: Uice pre  iter (SEAICE_LSR  2)  min= -4.74478293331770E-04
DEBUG_STATS_RL: Uice pre  iter (SEAICE_LSR  2)  max=  5.19863184318560E-03
DEBUG_STATS_RL: Uice pre  iter (SEAICE_LSR  2) mean=  1.15969103043184E-03
DEBUG_STATS_RL: Uice pre  iter (SEAICE_LSR  2) S.D.=  1.37050304765703E-03
DEBUG_STATS_RL: Vice pre  iter (SEAICE_LSR  2)  min= -2.82028703630720E-03
DEBUG_STATS_RL: Vice pre  iter (SEAICE_LSR  2)  max=  8.55909305417855E-04
DEBUG_STATS_RL: Vice pre  iter (SEAICE_LSR  2) mean= -7.32602707228794E-04
DEBUG_STATS_RL: Vice pre  iter (SEAICE_LSR  2) S.D.=  9.65742386214621E-04
DEBUG_STATS_RL:                EtaN (DYNAMICS)  min=  0.00000000000000E+00
DEBUG_STATS_RL:                EtaN (DYNAMICS)  max=  0.00000000000000E+00
DEBUG_STATS_RL:                EtaN (DYNAMICS) mean=  0.00000000000000E+00
DEBUG_STATS_RL:                EtaN (DYNAMICS) S.D.=  0.00000000000000E+00
DEBUG_STATS_RL:                Uvel (DYNAMICS)  min=  0.00000000000000E+00
DEBUG_STATS_RL:                Uvel (DYNAMICS)  max=  0.00000000000000E+00
DEBUG_STATS_RL:                Uvel (DYNAMICS) mean=  0.00000000000000E+00
DEBUG_STATS_RL:                Uvel (DYNAMICS) S.D.=  0.00000000000000E+00
DEBUG_STATS_RL:                Vvel (DYNAMICS)  min=  0.00000000000000E+00
DEBUG_STATS_RL:                Vvel (DYNAMICS)  max=  0.00000000000000E+00
DEBUG_STATS_RL:                Vvel (DYNAMICS) mean=  0.00000000000000E+00
DEBUG_STATS_RL:                Vvel (DYNAMICS) S.D.=  0.00000000000000E+00
DEBUG_STATS_RL:                Wvel (DYNAMICS)  min=  0.00000000000000E+00
DEBUG_STATS_RL:                Wvel (DYNAMICS)  max=  0.00000000000000E+00
DEBUG_STATS_RL:                Wvel (DYNAMICS) mean=  0.00000000000000E+00
DEBUG_STATS_RL:                Wvel (DYNAMICS) S.D.=  0.00000000000000E+00
DEBUG_STATS_RL:               Theta (DYNAMICS)  min= -1.41036188602448E+00
DEBUG_STATS_RL:               Theta (DYNAMICS)  max=  1.33330764770508E+01
DEBUG_STATS_RL:               Theta (DYNAMICS) mean=  2.90475522269124E+00
DEBUG_STATS_RL:               Theta (DYNAMICS) S.D.=  2.44037465259698E+00
DEBUG_STATS_RL:                Salt (DYNAMICS)  min=  3.01286983489990E+01
DEBUG_STATS_RL:                Salt (DYNAMICS)  max=  3.54506225585938E+01
DEBUG_STATS_RL:                Salt (DYNAMICS) mean=  3.40845304745500E+01
DEBUG_STATS_RL:                Salt (DYNAMICS) S.D.=  9.00924836964808E-01
DEBUG_STATS_RL:                  Gu (DYNAMICS)  min= -2.00599447531986E-02
DEBUG_STATS_RL:                  Gu (DYNAMICS)  max=  1.04076999541495E-02
DEBUG_STATS_RL:                  Gu (DYNAMICS) mean= -2.58939542765896E-03
DEBUG_STATS_RL:                  Gu (DYNAMICS) S.D.=  4.84472279217175E-03
DEBUG_STATS_RL:                  Gv (DYNAMICS)  min= -2.97181268783620E-02
DEBUG_STATS_RL:                  Gv (DYNAMICS)  max=  1.05795727308992E-02
DEBUG_STATS_RL:                  Gv (DYNAMICS) mean= -1.51075895161939E-03
DEBUG_STATS_RL:                  Gv (DYNAMICS) S.D.=  5.23505354600419E-03
DEBUG_STATS_RL:               GuNm1 (DYNAMICS)  min=  0.00000000000000E+00
DEBUG_STATS_RL:               GuNm1 (DYNAMICS)  max=  0.00000000000000E+00
DEBUG_STATS_RL:               GuNm1 (DYNAMICS) mean=  0.00000000000000E+00
DEBUG_STATS_RL:               GuNm1 (DYNAMICS) S.D.=  0.00000000000000E+00
DEBUG_STATS_RL:               GvNm1 (DYNAMICS)  min=  0.00000000000000E+00
DEBUG_STATS_RL:               GvNm1 (DYNAMICS)  max=  0.00000000000000E+00
DEBUG_STATS_RL:               GvNm1 (DYNAMICS) mean=  0.00000000000000E+00
DEBUG_STATS_RL:               GvNm1 (DYNAMICS) S.D.=  0.00000000000000E+00
DEBUG_STATS_RL:               GtNm1 (DYNAMICS)  min=  0.00000000000000E+00
DEBUG_STATS_RL:               GtNm1 (DYNAMICS)  max=  0.00000000000000E+00
DEBUG_STATS_RL:               GtNm1 (DYNAMICS) mean=  0.00000000000000E+00
DEBUG_STATS_RL:               GtNm1 (DYNAMICS) S.D.=  0.00000000000000E+00
DEBUG_STATS_RL:               GsNm1 (DYNAMICS)  min=  0.00000000000000E+00
DEBUG_STATS_RL:               GsNm1 (DYNAMICS)  max=  0.00000000000000E+00
DEBUG_STATS_RL:               GsNm1 (DYNAMICS) mean=  0.00000000000000E+00
DEBUG_STATS_RL:               GsNm1 (DYNAMICS) S.D.=  0.00000000000000E+00
(PID.TID 0000.0001) SOLVE_FOR_PRESSURE: putPmEinXvector =    F
DEBUG_STATS_RL:    cg2d_b (SOLVE_FOR_PRESSURE)  min= -6.15797366908278E+03
DEBUG_STATS_RL:    cg2d_b (SOLVE_FOR_PRESSURE)  max=  2.03762696322118E+03
DEBUG_STATS_RL:    cg2d_b (SOLVE_FOR_PRESSURE) mean=  2.40637139844087E-14
DEBUG_STATS_RL:    cg2d_b (SOLVE_FOR_PRESSURE) S.D.=  8.03730450548215E+02
 cg2d: Sum(rhs),rhsMax =   7.91033905045424E-16  9.91122157459750E-01
DEBUG_STATS_RL:    cg2d_x (SOLVE_FOR_PRESSURE)  min= -7.77200124675132E-01
DEBUG_STATS_RL:    cg2d_x (SOLVE_FOR_PRESSURE)  max=  2.02552651121663E+00
DEBUG_STATS_RL:    cg2d_x (SOLVE_FOR_PRESSURE) mean= -8.58037095103906E-03
DEBUG_STATS_RL:    cg2d_x (SOLVE_FOR_PRESSURE) S.D.=  4.14863218307968E-01
DEBUG_STATS_RL:          Uvel (THERMODYNAMICS)  min= -1.97613285723242E-02
DEBUG_STATS_RL:          Uvel (THERMODYNAMICS)  max=  1.31897193240012E-02
DEBUG_STATS_RL:          Uvel (THERMODYNAMICS) mean= -7.76915115649382E-04
DEBUG_STATS_RL:          Uvel (THERMODYNAMICS) S.D.=  3.97168834923499E-03
DEBUG_STATS_RL:          Vvel (THERMODYNAMICS)  min= -1.13773235335529E-02
DEBUG_STATS_RL:          Vvel (THERMODYNAMICS)  max=  2.04284639774261E-02
DEBUG_STATS_RL:          Vvel (THERMODYNAMICS) mean=  7.24190880687442E-04
DEBUG_STATS_RL:          Vvel (THERMODYNAMICS) S.D.=  4.28907995073846E-03
DEBUG_STATS_RL:          Wvel (THERMODYNAMICS)  min= -4.27131465138430E-05
DEBUG_STATS_RL:          Wvel (THERMODYNAMICS)  max=  1.16530364658749E-04
DEBUG_STATS_RL:          Wvel (THERMODYNAMICS) mean= -4.07763417598552E-07
DEBUG_STATS_RL:          Wvel (THERMODYNAMICS) S.D.=  1.80149904412009E-05
DEBUG_STATS_RL:         Theta (THERMODYNAMICS)  min= -1.41019615972461E+00
DEBUG_STATS_RL:         Theta (THERMODYNAMICS)  max=  1.32440592110212E+01
DEBUG_STATS_RL:         Theta (THERMODYNAMICS) mean=  2.49735783552471E+00
DEBUG_STATS_RL:         Theta (THERMODYNAMICS) S.D.=  2.45807980529386E+00
DEBUG_STATS_RL:          Salt (THERMODYNAMICS)  min=  2.76560994014067E+01
DEBUG_STATS_RL:          Salt (THERMODYNAMICS)  max=  3.54507778736995E+01
DEBUG_STATS_RL:          Salt (THERMODYNAMICS) mean=  3.39623217189239E+01
DEBUG_STATS_RL:          Salt (THERMODYNAMICS) S.D.=  1.10108958710322E+00
DEBUG_STATS_RL:         GtNm1 (THERMODYNAMICS)  min=  0.00000000000000E+00
DEBUG_STATS_RL:         GtNm1 (THERMODYNAMICS)  max=  0.00000000000000E+00
DEBUG_STATS_RL:         GtNm1 (THERMODYNAMICS) mean=  0.00000000000000E+00
DEBUG_STATS_RL:         GtNm1 (THERMODYNAMICS) S.D.=  0.00000000000000E+00
DEBUG_STATS_RL:         GsNm1 (THERMODYNAMICS)  min=  0.00000000000000E+00
DEBUG_STATS_RL:         GsNm1 (THERMODYNAMICS)  max=  0.00000000000000E+00
DEBUG_STATS_RL:         GsNm1 (THERMODYNAMICS) mean=  0.00000000000000E+00
DEBUG_STATS_RL:         GsNm1 (THERMODYNAMICS) S.D.=  0.00000000000000E+00
(PID.TID 0000.0001)  MDS_WRITE_FIELD: it,rec,kS,kL,kH=       1     2   1   1   1 file=m_sst_step.0000000001
(PID.TID 0000.0001)  MDS_READ_FIELD: opening global file: xx_atemp.effective.0000000001.data
(PID.TID 0000.0001) EXF_SET_FLD: processing field "climsss",  file: SSS_monthly.labsea1979
(PID.TID 0000.0001) EXF_SET_FLD:   myIter, count0, count1:         1      1      2
(PID.TID 0000.0001) EXF_SET_FLD:   first, changed, fac:   F   F    0.49863387978142082
(PID.TID 0000.0001) EXF_SET_FLD: processing field "uwind",  file: u10m.labsea1979
(PID.TID 0000.0001) EXF_SET_FLD:   myIter, count0, count1:         1      1      2
(PID.TID 0000.0001) EXF_SET_FLD:   first, changed, fac:   F   F    0.49863387978142082
(PID.TID 0000.0001) EXF_SET_FLD: processing field "vwind",  file: v10m.labsea1979
(PID.TID 0000.0001) EXF_SET_FLD:   myIter, count0, count1:         1      1      2
(PID.TID 0000.0001) EXF_SET_FLD:   first, changed, fac:   F   F    0.49863387978142082
(PID.TID 0000.0001) EXF_SET_FLD: processing field "atemp",  file: tair.labsea1979
(PID.TID 0000.0001) EXF_SET_FLD:   myIter, count0, count1:         1      1      2
(PID.TID 0000.0001) EXF_SET_FLD:   first, changed, fac:   F   F    0.49863387978142082
(PID.TID 0000.0001) EXF_SET_FLD: processing field "aqh",  file: qa.labsea1979
(PID.TID 0000.0001) EXF_SET_FLD:   myIter, count0, count1:         1      1      2
(PID.TID 0000.0001) EXF_SET_FLD:   first, changed, fac:   F   F    0.49863387978142082
(PID.TID 0000.0001) EXF_SET_FLD: processing field "precip",  file: prate.labsea1979
(PID.TID 0000.0001) EXF_SET_FLD:   myIter, count0, count1:         1      1      2
(PID.TID 0000.0001) EXF_SET_FLD:   first, changed, fac:   F   F    0.49863387978142082
(PID.TID 0000.0001) EXF_SET_FLD: processing field "swdown",  file: fsh.labsea1979
(PID.TID 0000.0001) EXF_SET_FLD:   myIter, count0, count1:         1      1      2
(PID.TID 0000.0001) EXF_SET_FLD:   first, changed, fac:   F   F    0.49863387978142082
(PID.TID 0000.0001) EXF_SET_FLD: processing field "lwdown",  file: flo.labsea1979
(PID.TID 0000.0001) EXF_SET_FLD:   myIter, count0, count1:         1      1      2
(PID.TID 0000.0001) EXF_SET_FLD:   first, changed, fac:   F   F    0.49863387978142082
DEBUG_STATS_RL: Uice pre  iter (SEAICE_LSR  1)  min= -1.15942749827435E-03
DEBUG_STATS_RL: Uice pre  iter (SEAICE_LSR  1)  max=  1.20418167656252E-02
DEBUG_STATS_RL: Uice pre  iter (SEAICE_LSR  1) mean=  2.64506216410235E-03
DEBUG_STATS_RL: Uice pre  iter (SEAICE_LSR  1) S.D.=  3.13774756817759E-03
DEBUG_STATS_RL: Vice pre  iter (SEAICE_LSR  1)  min= -5.99336397479914E-03
DEBUG_STATS_RL: Vice pre  iter (SEAICE_LSR  1)  max=  4.08760906980194E-03
DEBUG_STATS_RL: Vice pre  iter (SEAICE_LSR  1) mean= -1.18494610218030E-03
DEBUG_STATS_RL: Vice pre  iter (SEAICE_LSR  1) S.D.=  2.51572614879252E-03
DEBUG_STATS_RL: Uice pre  iter (SEAICE_LSR  2)  min= -1.66461661595648E-03
DEBUG_STATS_RL: Uice pre  iter (SEAICE_LSR  2)  max=  2.05817158221004E-01
DEBUG_STATS_RL: Uice pre  iter (SEAICE_LSR  2) mean=  2.18937658776521E-02
DEBUG_STATS_RL: Uice pre  iter (SEAICE_LSR  2) S.D.=  4.15140060700953E-02
DEBUG_STATS_RL: Vice pre  iter (SEAICE_LSR  2)  min= -1.15170217244308E-02
DEBUG_STATS_RL: Vice pre  iter (SEAICE_LSR  2)  max=  6.02623623339015E-02
DEBUG_STATS_RL: Vice pre  iter (SEAICE_LSR  2) mean= -5.88552864146919E-04
DEBUG_STATS_RL: Vice pre  iter (SEAICE_LSR  2) S.D.=  1.21471679479680E-02
DEBUG_STATS_RL:                EtaN (DYNAMICS)  min= -7.91800933896177E-02
DEBUG_STATS_RL:                EtaN (DYNAMICS)  max=  2.06357890624784E-01
DEBUG_STATS_RL:                EtaN (DYNAMICS) mean= -8.74156541733471E-04
DEBUG_STATS_RL:                EtaN (DYNAMICS) S.D.=  4.22657013639480E-02
DEBUG_STATS_RL:                Uvel (DYNAMICS)  min= -1.97613285723242E-02
DEBUG_STATS_RL:                Uvel (DYNAMICS)  max=  1.31897193240012E-02
DEBUG_STATS_RL:                Uvel (DYNAMICS) mean= -7.76915115649382E-04
DEBUG_STATS_RL:                Uvel (DYNAMICS) S.D.=  3.97168834923499E-03
DEBUG_STATS_RL:                Vvel (DYNAMICS)  min= -1.13773235335529E-02
DEBUG_STATS_RL:                Vvel (DYNAMICS)  max=  2.04284639774261E-02
DEBUG_STATS_RL:                Vvel (DYNAMICS) mean=  7.24190880687442E-04
DEBUG_STATS_RL:                Vvel (DYNAMICS) S.D.=  4.28907995073846E-03
DEBUG_STATS_RL:                Wvel (DYNAMICS)  min= -4.27131465138430E-05
DEBUG_STATS_RL:                Wvel (DYNAMICS)  max=  1.16530364658749E-04
DEBUG_STATS_RL:                Wvel (DYNAMICS) mean= -4.07763417598552E-07
DEBUG_STATS_RL:                Wvel (DYNAMICS) S.D.=  1.80149904412009E-05
DEBUG_STATS_RL:               Theta (DYNAMICS)  min= -1.41019615972461E+00
DEBUG_STATS_RL:               Theta (DYNAMICS)  max=  1.32440592110212E+01
DEBUG_STATS_RL:               Theta (DYNAMICS) mean=  2.49735783552471E+00
DEBUG_STATS_RL:               Theta (DYNAMICS) S.D.=  2.45807980529386E+00
DEBUG_STATS_RL:                Salt (DYNAMICS)  min=  2.76560994014067E+01
DEBUG_STATS_RL:                Salt (DYNAMICS)  max=  3.54507778736995E+01
DEBUG_STATS_RL:                Salt (DYNAMICS) mean=  3.39623217189239E+01
DEBUG_STATS_RL:                Salt (DYNAMICS) S.D.=  1.10108958710322E+00
DEBUG_STATS_RL:                  Gu (DYNAMICS)  min= -2.89112950168885E-02
DEBUG_STATS_RL:                  Gu (DYNAMICS)  max=  3.25741619058367E-02
DEBUG_STATS_RL:                  Gu (DYNAMICS) mean= -2.32520622240010E-03
DEBUG_STATS_RL:                  Gu (DYNAMICS) S.D.=  7.09155735784456E-03
DEBUG_STATS_RL:                  Gv (DYNAMICS)  min= -3.71241625510621E-02
DEBUG_STATS_RL:                  Gv (DYNAMICS)  max=  1.83230442031147E-02
DEBUG_STATS_RL:                  Gv (DYNAMICS) mean= -1.89259208721574E-03
DEBUG_STATS_RL:                  Gv (DYNAMICS) S.D.=  7.31046974976050E-03
DEBUG_STATS_RL:               GuNm1 (DYNAMICS)  min= -1.80289983389196E-07
DEBUG_STATS_RL:               GuNm1 (DYNAMICS)  max=  1.49251399870334E-07
DEBUG_STATS_RL:               GuNm1 (DYNAMICS) mean=  3.41794292088730E-09
DEBUG_STATS_RL:               GuNm1 (DYNAMICS) S.D.=  3.19693794884499E-08
DEBUG_STATS_RL:               GvNm1 (DYNAMICS)  min= -5.11118133734402E-08
DEBUG_STATS_RL:               GvNm1 (DYNAMICS)  max=  4.88281454922596E-08
DEBUG_STATS_RL:               GvNm1 (DYNAMICS) mean= -4.70245831256227E-11
DEBUG_STATS_RL:               GvNm1 (DYNAMICS) S.D.=  1.42003013108260E-08
DEBUG_STATS_RL:               GtNm1 (DYNAMICS)  min=  0.00000000000000E+00
DEBUG_STATS_RL:               GtNm1 (DYNAMICS)  max=  0.00000000000000E+00
DEBUG_STATS_RL:               GtNm1 (DYNAMICS) mean=  0.00000000000000E+00
DEBUG_STATS_RL:               GtNm1 (DYNAMICS) S.D.=  0.00000000000000E+00
DEBUG_STATS_RL:               GsNm1 (DYNAMICS)  min=  0.00000000000000E+00
DEBUG_STATS_RL:               GsNm1 (DYNAMICS)  max=  0.00000000000000E+00
DEBUG_STATS_RL:               GsNm1 (DYNAMICS) mean=  0.00000000000000E+00
DEBUG_STATS_RL:               GsNm1 (DYNAMICS) S.D.=  0.00000000000000E+00
DEBUG_STATS_RL:    cg2d_b (SOLVE_FOR_PRESSURE)  min= -7.40048897093643E+03
DEBUG_STATS_RL:    cg2d_b (SOLVE_FOR_PRESSURE)  max=  2.33428667016753E+03
DEBUG_STATS_RL:    cg2d_b (SOLVE_FOR_PRESSURE) mean=  8.14755670338248E-14
DEBUG_STATS_RL:    cg2d_b (SOLVE_FOR_PRESSURE) S.D.=  9.39768538610341E+02
 cg2d: Sum(rhs),rhsMax =   1.69655955950532E-15  1.19110424780756E+00
DEBUG_STATS_RL:    cg2d_x (SOLVE_FOR_PRESSURE)  min= -1.25977767814669E+00
DEBUG_STATS_RL:    cg2d_x (SOLVE_FOR_PRESSURE)  max=  2.83276936769469E+00
DEBUG_STATS_RL:    cg2d_x (SOLVE_FOR_PRESSURE) mean= -1.56118539430840E-02
DEBUG_STATS_RL:    cg2d_x (SOLVE_FOR_PRESSURE) S.D.=  6.63083405129822E-01
DEBUG_STATS_RL:          Uvel (THERMODYNAMICS)  min= -4.02432897586654E-02
DEBUG_STATS_RL:          Uvel (THERMODYNAMICS)  max=  3.23458159885798E-02
DEBUG_STATS_RL:          Uvel (THERMODYNAMICS) mean=  6.75465330213619E-04
DEBUG_STATS_RL:          Uvel (THERMODYNAMICS) S.D.=  7.33761384666755E-03
DEBUG_STATS_RL:          Vvel (THERMODYNAMICS)  min= -1.64862319058740E-02
DEBUG_STATS_RL:          Vvel (THERMODYNAMICS)  max=  4.21759382970963E-02
DEBUG_STATS_RL:          Vvel (THERMODYNAMICS) mean=  1.82858022907245E-03
DEBUG_STATS_RL:          Vvel (THERMODYNAMICS) S.D.=  8.08424055894444E-03
DEBUG_STATS_RL:          Wvel (THERMODYNAMICS)  min= -6.56490529174609E-05
DEBUG_STATS_RL:          Wvel (THERMODYNAMICS)  max=  1.68683217295649E-04
DEBUG_STATS_RL:          Wvel (THERMODYNAMICS) mean= -4.30739495112749E-07
DEBUG_STATS_RL:          Wvel (THERMODYNAMICS) S.D.=  1.89945067258177E-05
DEBUG_STATS_RL:         Theta (THERMODYNAMICS)  min= -1.83156742552816E+00
DEBUG_STATS_RL:         Theta (THERMODYNAMICS)  max=  1.32606612249659E+01
DEBUG_STATS_RL:         Theta (THERMODYNAMICS) mean=  2.43057765558689E+00
DEBUG_STATS_RL:         Theta (THERMODYNAMICS) S.D.=  2.55246643542934E+00
DEBUG_STATS_RL:          Salt (THERMODYNAMICS)  min=  2.76092906345221E+01
DEBUG_STATS_RL:          Salt (THERMODYNAMICS)  max=  3.54509236522671E+01
DEBUG_STATS_RL:          Salt (THERMODYNAMICS) mean=  3.39413044254440E+01
DEBUG_STATS_RL:          Salt (THERMODYNAMICS) S.D.=  1.14495872836397E+00
DEBUG_STATS_RL:         GtNm1 (THERMODYNAMICS)  min=  0.00000000000000E+00
DEBUG_STATS_RL:         GtNm1 (THERMODYNAMICS)  max=  0.00000000000000E+00
DEBUG_STATS_RL:         GtNm1 (THERMODYNAMICS) mean=  0.00000000000000E+00
DEBUG_STATS_RL:         GtNm1 (THERMODYNAMICS) S.D.=  0.00000000000000E+00
DEBUG_STATS_RL:         GsNm1 (THERMODYNAMICS)  min=  0.00000000000000E+00
DEBUG_STATS_RL:         GsNm1 (THERMODYNAMICS)  max=  0.00000000000000E+00
DEBUG_STATS_RL:         GsNm1 (THERMODYNAMICS) mean=  0.00000000000000E+00
DEBUG_STATS_RL:         GsNm1 (THERMODYNAMICS) S.D.=  0.00000000000000E+00
(PID.TID 0000.0001)  MDS_WRITE_FIELD: it,rec,kS,kL,kH=       1     3   1   1   1 file=m_sst_step.0000000001
(PID.TID 0000.0001)  MDS_READ_FIELD: opening global file: xx_atemp.effective.0000000001.data
(PID.TID 0000.0001) EXF_SET_FLD: processing field "climsss",  file: SSS_monthly.labsea1979
(PID.TID 0000.0001) EXF_SET_FLD:   myIter, count0, count1:         2      1      2
(PID.TID 0000.0001) EXF_SET_FLD:   first, changed, fac:   F   F    0.49726775956284153
(PID.TID 0000.0001) EXF_SET_FLD: processing field "uwind",  file: u10m.labsea1979
(PID.TID 0000.0001) EXF_SET_FLD:   myIter, count0, count1:         2      1      2
(PID.TID 0000.0001) EXF_SET_FLD:   first, changed, fac:   F   F    0.49726775956284153
(PID.TID 0000.0001) EXF_SET_FLD: processing field "vwind",  file: v10m.labsea1979
(PID.TID 0000.0001) EXF_SET_FLD:   myIter, count0, count1:         2      1      2
(PID.TID 0000.0001) EXF_SET_FLD:   first, changed, fac:   F   F    0.49726775956284153
(PID.TID 0000.0001) EXF_SET_FLD: processing field "atemp",  file: tair.labsea1979
(PID.TID 0000.0001) EXF_SET_FLD:   myIter, count0, count1:         2      1      2
(PID.TID 0000.0001) EXF_SET_FLD:   first, changed, fac:   F   F    0.49726775956284153
(PID.TID 0000.0001) EXF_SET_FLD: processing field "aqh",  file: qa.labsea1979
(PID.TID 0000.0001) EXF_SET_FLD:   myIter, count0, count1:         2      1      2
(PID.TID 0000.0001) EXF_SET_FLD:   first, changed, fac:   F   F    0.49726775956284153
(PID.TID 0000.0001) EXF_SET_FLD: processing field "precip",  file: prate.labsea1979
(PID.TID 0000.0001) EXF_SET_FLD:   myIter, count0, count1:         2      1      2
(PID.TID 0000.0001) EXF_SET_FLD:   first, changed, fac:   F   F    0.49726775956284153
(PID.TID 0000.0001) EXF_SET_FLD: processing field "swdown",  file: fsh.labsea1979
(PID.TID 0000.0001) EXF_SET_FLD:   myIter, count0, count1:         2      1      2
(PID.TID 0000.0001) EXF_SET_FLD:   first, changed, fac:   F   F    0.49726775956284153
(PID.TID 0000.0001) EXF_SET_FLD: processing field "lwdown",  file: flo.labsea1979
(PID.TID 0000.0001) EXF_SET_FLD:   myIter, count0, count1:         2      1      2
(PID.TID 0000.0001) EXF_SET_FLD:   first, changed, fac:   F   F    0.49726775956284153
DEBUG_STATS_RL: Uice pre  iter (SEAICE_LSR  1)  min= -2.72590911190358E-03
DEBUG_STATS_RL: Uice pre  iter (SEAICE_LSR  1)  max=  1.84821888363614E-01
DEBUG_STATS_RL: Uice pre  iter (SEAICE_LSR  1) mean=  4.43171854916153E-02
DEBUG_STATS_RL: Uice pre  iter (SEAICE_LSR  1) S.D.=  5.55969094952023E-02
DEBUG_STATS_RL: Vice pre  iter (SEAICE_LSR  1)  min= -3.16987209121493E-02
DEBUG_STATS_RL: Vice pre  iter (SEAICE_LSR  1)  max=  6.25866618672353E-02
DEBUG_STATS_RL: Vice pre  iter (SEAICE_LSR  1) mean= -5.92146683087638E-03
DEBUG_STATS_RL: Vice pre  iter (SEAICE_LSR  1) S.D.=  1.77615498820522E-02
DEBUG_STATS_RL: Uice pre  iter (SEAICE_LSR  2)  min= -3.50206878134760E-03
DEBUG_STATS_RL: Uice pre  iter (SEAICE_LSR  2)  max=  1.92025155896598E-01
DEBUG_STATS_RL: Uice pre  iter (SEAICE_LSR  2) mean=  5.29589963327355E-02
DEBUG_STATS_RL: Uice pre  iter (SEAICE_LSR  2) S.D.=  5.86189159300025E-02
DEBUG_STATS_RL: Vice pre  iter (SEAICE_LSR  2)  min= -6.12456112266643E-02
DEBUG_STATS_RL: Vice pre  iter (SEAICE_LSR  2)  max=  9.55317561460537E-02
DEBUG_STATS_RL: Vice pre  iter (SEAICE_LSR  2) mean= -1.11523016932064E-02
DEBUG_STATS_RL: Vice pre  iter (SEAICE_LSR  2) S.D.=  2.73762100034412E-02
DEBUG_STATS_RL:                EtaN (DYNAMICS)  min= -1.28344439274898E-01
DEBUG_STATS_RL:                EtaN (DYNAMICS)  max=  2.88598696737305E-01
DEBUG_STATS_RL:                EtaN (DYNAMICS) mean= -1.59051448134439E-03
DEBUG_STATS_RL:                EtaN (DYNAMICS) S.D.=  6.75540369544218E-02
DEBUG_STATS_RL:                Uvel (DYNAMICS)  min= -4.02432897586654E-02
DEBUG_STATS_RL:                Uvel (DYNAMICS)  max=  3.23458159885798E-02
DEBUG_STATS_RL:                Uvel (DYNAMICS) mean=  6.75465330213619E-04
DEBUG_STATS_RL:                Uvel (DYNAMICS) S.D.=  7.33761384666755E-03
DEBUG_STATS_RL:                Vvel (DYNAMICS)  min= -1.64862319058740E-02
DEBUG_STATS_RL:                Vvel (DYNAMICS)  max=  4.21759382970963E-02
DEBUG_STATS_RL:                Vvel (DYNAMICS) mean=  1.82858022907245E-03
DEBUG_STATS_RL:                Vvel (DYNAMICS) S.D.=  8.08424055894444E-03
DEBUG_STATS_RL:                Wvel (DYNAMICS)  min= -6.56490529174609E-05
DEBUG_STATS_RL:                Wvel (DYNAMICS)  max=  1.68683217295649E-04
DEBUG_STATS_RL:                Wvel (DYNAMICS) mean= -4.30739495112749E-07
DEBUG_STATS_RL:                Wvel (DYNAMICS) S.D.=  1.89945067258177E-05
DEBUG_STATS_RL:               Theta (DYNAMICS)  min= -1.83156742552816E+00
DEBUG_STATS_RL:               Theta (DYNAMICS)  max=  1.32606612249659E+01
DEBUG_STATS_RL:               Theta (DYNAMICS) mean=  2.43057765558689E+00
DEBUG_STATS_RL:               Theta (DYNAMICS) S.D.=  2.55246643542934E+00
DEBUG_STATS_RL:                Salt (DYNAMICS)  min=  2.76092906345221E+01
DEBUG_STATS_RL:                Salt (DYNAMICS)  max=  3.54509236522671E+01
DEBUG_STATS_RL:                Salt (DYNAMICS) mean=  3.39413044254440E+01
DEBUG_STATS_RL:                Salt (DYNAMICS) S.D.=  1.14495872836397E+00
DEBUG_STATS_RL:                  Gu (DYNAMICS)  min= -3.23510557472043E-02
DEBUG_STATS_RL:                  Gu (DYNAMICS)  max=  5.80377411255950E-02
DEBUG_STATS_RL:                  Gu (DYNAMICS) mean= -2.97572069505926E-04
DEBUG_STATS_RL:                  Gu (DYNAMICS) S.D.=  9.92934455349959E-03
DEBUG_STATS_RL:                  Gv (DYNAMICS)  min= -4.01882757136262E-02
DEBUG_STATS_RL:                  Gv (DYNAMICS)  max=  3.49568132071783E-02
DEBUG_STATS_RL:                  Gv (DYNAMICS) mean= -2.47632966121546E-03
DEBUG_STATS_RL:                  Gv (DYNAMICS) S.D.=  9.60357312382126E-03
DEBUG_STATS_RL:               GuNm1 (DYNAMICS)  min= -2.64915263690508E-07
DEBUG_STATS_RL:               GuNm1 (DYNAMICS)  max=  1.75889100747608E-07
DEBUG_STATS_RL:               GuNm1 (DYNAMICS) mean=  2.42191647084258E-09
DEBUG_STATS_RL:               GuNm1 (DYNAMICS) S.D.=  4.49076324943066E-08
DEBUG_STATS_RL:               GvNm1 (DYNAMICS)  min= -8.47298200116458E-08
DEBUG_STATS_RL:               GvNm1 (DYNAMICS)  max=  7.67749697778880E-08
DEBUG_STATS_RL:               GvNm1 (DYNAMICS) mean= -4.71533361258311E-10
DEBUG_STATS_RL:               GvNm1 (DYNAMICS) S.D.=  2.04113373444509E-08
DEBUG_STATS_RL:               GtNm1 (DYNAMICS)  min=  0.00000000000000E+00
DEBUG_STATS_RL:               GtNm1 (DYNAMICS)  max=  0.00000000000000E+00
DEBUG_STATS_RL:               GtNm1 (DYNAMICS) mean=  0.00000000000000E+00
DEBUG_STATS_RL:               GtNm1 (DYNAMICS) S.D.=  0.00000000000000E+00
DEBUG_STATS_RL:               GsNm1 (DYNAMICS)  min=  0.00000000000000E+00
DEBUG_STATS_RL:               GsNm1 (DYNAMICS)  max=  0.00000000000000E+00
DEBUG_STATS_RL:               GsNm1 (DYNAMICS) mean=  0.00000000000000E+00
DEBUG_STATS_RL:               GsNm1 (DYNAMICS) S.D.=  0.00000000000000E+00
DEBUG_STATS_RL:    cg2d_b (SOLVE_FOR_PRESSURE)  min= -7.51696131718231E+03
DEBUG_STATS_RL:    cg2d_b (SOLVE_FOR_PRESSURE)  max=  2.21291016221043E+03
DEBUG_STATS_RL:    cg2d_b (SOLVE_FOR_PRESSURE) mean=  4.10598962237903E-13
DEBUG_STATS_RL:    cg2d_b (SOLVE_FOR_PRESSURE) S.D.=  9.35355930257288E+02
 cg2d: Sum(rhs),rhsMax =   7.99707522425308E-15  1.20985040186716E+00
DEBUG_STATS_RL:    cg2d_x (SOLVE_FOR_PRESSURE)  min= -1.39137659518994E+00
DEBUG_STATS_RL:    cg2d_x (SOLVE_FOR_PRESSURE)  max=  3.06244143644384E+00
DEBUG_STATS_RL:    cg2d_x (SOLVE_FOR_PRESSURE) mean= -2.04738907200232E-02
DEBUG_STATS_RL:    cg2d_x (SOLVE_FOR_PRESSURE) S.D.=  7.54254787472759E-01
DEBUG_STATS_RL:          Uvel (THERMODYNAMICS)  min= -4.85747443135387E-02
DEBUG_STATS_RL:          Uvel (THERMODYNAMICS)  max=  6.48566534974142E-02
DEBUG_STATS_RL:          Uvel (THERMODYNAMICS) mean=  2.83347825460578E-03
DEBUG_STATS_RL:          Uvel (THERMODYNAMICS) S.D.=  1.04406948546623E-02
DEBUG_STATS_RL:          Vvel (THERMODYNAMICS)  min= -2.93630589501181E-02
DEBUG_STATS_RL:          Vvel (THERMODYNAMICS)  max=  5.51081422495758E-02
DEBUG_STATS_RL:          Vvel (THERMODYNAMICS) mean=  1.89398823345376E-03
DEBUG_STATS_RL:          Vvel (THERMODYNAMICS) S.D.=  1.13685531753027E-02
DEBUG_STATS_RL:          Wvel (THERMODYNAMICS)  min= -1.01835019199985E-04
DEBUG_STATS_RL:          Wvel (THERMODYNAMICS)  max=  2.18299385766788E-04
DEBUG_STATS_RL:          Wvel (THERMODYNAMICS) mean= -3.58449213338399E-07
DEBUG_STATS_RL:          Wvel (THERMODYNAMICS) S.D.=  2.04428902649861E-05
DEBUG_STATS_RL:         Theta (THERMODYNAMICS)  min= -1.93250363389783E+00
DEBUG_STATS_RL:         Theta (THERMODYNAMICS)  max=  1.32631363173882E+01
DEBUG_STATS_RL:         Theta (THERMODYNAMICS) mean=  2.41867029854828E+00
DEBUG_STATS_RL:         Theta (THERMODYNAMICS) S.D.=  2.57126546321788E+00
DEBUG_STATS_RL:          Salt (THERMODYNAMICS)  min=  2.76143299539290E+01
DEBUG_STATS_RL:          Salt (THERMODYNAMICS)  max=  3.54510577106203E+01
DEBUG_STATS_RL:          Salt (THERMODYNAMICS) mean=  3.39375783473310E+01
DEBUG_STATS_RL:          Salt (THERMODYNAMICS) S.D.=  1.15271478315991E+00
DEBUG_STATS_RL:         GtNm1 (THERMODYNAMICS)  min=  0.00000000000000E+00
DEBUG_STATS_RL:         GtNm1 (THERMODYNAMICS)  max=  0.00000000000000E+00
DEBUG_STATS_RL:         GtNm1 (THERMODYNAMICS) mean=  0.00000000000000E+00
DEBUG_STATS_RL:         GtNm1 (THERMODYNAMICS) S.D.=  0.00000000000000E+00
DEBUG_STATS_RL:         GsNm1 (THERMODYNAMICS)  min=  0.00000000000000E+00
DEBUG_STATS_RL:         GsNm1 (THERMODYNAMICS)  max=  0.00000000000000E+00
DEBUG_STATS_RL:         GsNm1 (THERMODYNAMICS) mean=  0.00000000000000E+00
DEBUG_STATS_RL:         GsNm1 (THERMODYNAMICS) S.D.=  0.00000000000000E+00
(PID.TID 0000.0001)  MDS_WRITE_FIELD: it,rec,kS,kL,kH=       1     4   1   1   1 file=m_sst_step.0000000001
(PID.TID 0000.0001)  MDS_READ_FIELD: opening global file: xx_atemp.effective.0000000001.data
(PID.TID 0000.0001) EXF_SET_FLD: processing field "climsss",  file: SSS_monthly.labsea1979
(PID.TID 0000.0001) EXF_SET_FLD:   myIter, count0, count1:         3      1      2
(PID.TID 0000.0001) EXF_SET_FLD:   first, changed, fac:   F   F    0.49590163934426235
(PID.TID 0000.0001) EXF_SET_FLD: processing field "uwind",  file: u10m.labsea1979
(PID.TID 0000.0001) EXF_SET_FLD:   myIter, count0, count1:         3      1      2
(PID.TID 0000.0001) EXF_SET_FLD:   first, changed, fac:   F   F    0.49590163934426235
(PID.TID 0000.0001) EXF_SET_FLD: processing field "vwind",  file: v10m.labsea1979
(PID.TID 0000.0001) EXF_SET_FLD:   myIter, count0, count1:         3      1      2
(PID.TID 0000.0001) EXF_SET_FLD:   first, changed, fac:   F   F    0.49590163934426235
(PID.TID 0000.0001) EXF_SET_FLD: processing field "atemp",  file: tair.labsea1979
(PID.TID 0000.0001) EXF_SET_FLD:   myIter, count0, count1:         3      1      2
(PID.TID 0000.0001) EXF_SET_FLD:   first, changed, fac:   F   F    0.49590163934426235
(PID.TID 0000.0001) EXF_SET_FLD: processing field "aqh",  file: qa.labsea1979
(PID.TID 0000.0001) EXF_SET_FLD:   myIter, count0, count1:         3      1      2
(PID.TID 0000.0001) EXF_SET_FLD:   first, changed, fac:   F   F    0.49590163934426235
(PID.TID 0000.0001) EXF_SET_FLD: processing field "precip",  file: prate.labsea1979
(PID.TID 0000.0001) EXF_SET_FLD:   myIter, count0, count1:         3      1      2
(PID.TID 0000.0001) EXF_SET_FLD:   first, changed, fac:   F   F    0.49590163934426235
(PID.TID 0000.0001) EXF_SET_FLD: processing field "swdown",  file: fsh.labsea1979
(PID.TID 0000.0001) EXF_SET_FLD:   myIter, count0, count1:         3      1      2
(PID.TID 0000.0001) EXF_SET_FLD:   first, changed, fac:   F   F    0.49590163934426235
(PID.TID 0000.0001) EXF_SET_FLD: processing field "lwdown",  file: flo.labsea1979
(PID.TID 0000.0001) EXF_SET_FLD:   myIter, count0, count1:         3      1      2
(PID.TID 0000.0001) EXF_SET_FLD:   first, changed, fac:   F   F    0.49590163934426235
DEBUG_STATS_RL: Uice pre  iter (SEAICE_LSR  1)  min= -4.89522325595943E-03
DEBUG_STATS_RL: Uice pre  iter (SEAICE_LSR  1)  max=  1.61355517756085E-01
DEBUG_STATS_RL: Uice pre  iter (SEAICE_LSR  1) mean=  5.67051326033397E-02
DEBUG_STATS_RL: Uice pre  iter (SEAICE_LSR  1) S.D.=  5.73816154996413E-02
DEBUG_STATS_RL: Vice pre  iter (SEAICE_LSR  1)  min= -1.51246540995872E-01
DEBUG_STATS_RL: Vice pre  iter (SEAICE_LSR  1)  max=  8.91076561218486E-02
DEBUG_STATS_RL: Vice pre  iter (SEAICE_LSR  1) mean= -1.97403473771057E-02
DEBUG_STATS_RL: Vice pre  iter (SEAICE_LSR  1) S.D.=  3.94189649069557E-02
DEBUG_STATS_RL: Uice pre  iter (SEAICE_LSR  2)  min= -5.42054480415858E-03
DEBUG_STATS_RL: Uice pre  iter (SEAICE_LSR  2)  max=  2.02641844081809E-01
DEBUG_STATS_RL: Uice pre  iter (SEAICE_LSR  2) mean=  6.47762112258340E-02
DEBUG_STATS_RL: Uice pre  iter (SEAICE_LSR  2) S.D.=  6.71608790534713E-02
DEBUG_STATS_RL: Vice pre  iter (SEAICE_LSR  2)  min= -1.45601126352228E-01
DEBUG_STATS_RL: Vice pre  iter (SEAICE_LSR  2)  max=  1.04145470460115E-01
DEBUG_STATS_RL: Vice pre  iter (SEAICE_LSR  2) mean= -2.31827417443155E-02
DEBUG_STATS_RL: Vice pre  iter (SEAICE_LSR  2) S.D.=  4.33109039412729E-02
DEBUG_STATS_RL:                EtaN (DYNAMICS)  min= -1.41751558253182E-01
DEBUG_STATS_RL:                EtaN (DYNAMICS)  max=  3.11997375243881E-01
DEBUG_STATS_RL:                EtaN (DYNAMICS) mean= -2.08585218631801E-03
DEBUG_STATS_RL:                EtaN (DYNAMICS) S.D.=  7.68424535915032E-02
DEBUG_STATS_RL:                Uvel (DYNAMICS)  min= -4.85747443135387E-02
DEBUG_STATS_RL:                Uvel (DYNAMICS)  max=  6.48566534974142E-02
DEBUG_STATS_RL:                Uvel (DYNAMICS) mean=  2.83347825460578E-03
DEBUG_STATS_RL:                Uvel (DYNAMICS) S.D.=  1.04406948546623E-02
DEBUG_STATS_RL:                Vvel (DYNAMICS)  min= -2.93630589501181E-02
DEBUG_STATS_RL:                Vvel (DYNAMICS)  max=  5.51081422495758E-02
DEBUG_STATS_RL:                Vvel (DYNAMICS) mean=  1.89398823345376E-03
DEBUG_STATS_RL:                Vvel (DYNAMICS) S.D.=  1.13685531753027E-02
DEBUG_STATS_RL:                Wvel (DYNAMICS)  min= -1.01835019199985E-04
DEBUG_STATS_RL:                Wvel (DYNAMICS)  max=  2.18299385766788E-04
DEBUG_STATS_RL:                Wvel (DYNAMICS) mean= -3.58449213338399E-07
DEBUG_STATS_RL:                Wvel (DYNAMICS) S.D.=  2.04428902649861E-05
DEBUG_STATS_RL:               Theta (DYNAMICS)  min= -1.93250363389783E+00
DEBUG_STATS_RL:               Theta (DYNAMICS)  max=  1.32631363173882E+01
DEBUG_STATS_RL:               Theta (DYNAMICS) mean=  2.41867029854828E+00
DEBUG_STATS_RL:               Theta (DYNAMICS) S.D.=  2.57126546321788E+00
DEBUG_STATS_RL:                Salt (DYNAMICS)  min=  2.76143299539290E+01
DEBUG_STATS_RL:                Salt (DYNAMICS)  max=  3.54510577106203E+01
DEBUG_STATS_RL:                Salt (DYNAMICS) mean=  3.39375783473310E+01
DEBUG_STATS_RL:                Salt (DYNAMICS) S.D.=  1.15271478315991E+00
DEBUG_STATS_RL:                  Gu (DYNAMICS)  min= -3.31660092548357E-02
DEBUG_STATS_RL:                  Gu (DYNAMICS)  max=  7.71641715782449E-02
DEBUG_STATS_RL:                  Gu (DYNAMICS) mean=  1.79729889205074E-03
DEBUG_STATS_RL:                  Gu (DYNAMICS) S.D.=  1.23549872720593E-02
DEBUG_STATS_RL:                  Gv (DYNAMICS)  min= -6.51102265934605E-02
DEBUG_STATS_RL:                  Gv (DYNAMICS)  max=  4.74792371894018E-02
DEBUG_STATS_RL:                  Gv (DYNAMICS) mean= -3.61268002205243E-03
DEBUG_STATS_RL:                  Gv (DYNAMICS) S.D.=  1.25565096773595E-02
DEBUG_STATS_RL:               GuNm1 (DYNAMICS)  min= -2.57489899416699E-07
DEBUG_STATS_RL:               GuNm1 (DYNAMICS)  max=  1.89368528479173E-07
DEBUG_STATS_RL:               GuNm1 (DYNAMICS) mean=  4.40117074750581E-12
DEBUG_STATS_RL:               GuNm1 (DYNAMICS) S.D.=  4.68821385830572E-08
DEBUG_STATS_RL:               GvNm1 (DYNAMICS)  min= -1.09603640235135E-07
DEBUG_STATS_RL:               GvNm1 (DYNAMICS)  max=  9.62789262154716E-08
DEBUG_STATS_RL:               GvNm1 (DYNAMICS) mean= -8.49526391144931E-10
DEBUG_STATS_RL:               GvNm1 (DYNAMICS) S.D.=  2.55629549792546E-08
DEBUG_STATS_RL:               GtNm1 (DYNAMICS)  min=  0.00000000000000E+00
DEBUG_STATS_RL:               GtNm1 (DYNAMICS)  max=  0.00000000000000E+00
DEBUG_STATS_RL:               GtNm1 (DYNAMICS) mean=  0.00000000000000E+00
DEBUG_STATS_RL:               GtNm1 (DYNAMICS) S.D.=  0.00000000000000E+00
DEBUG_STATS_RL:               GsNm1 (DYNAMICS)  min=  0.00000000000000E+00
DEBUG_STATS_RL:               GsNm1 (DYNAMICS)  max=  0.00000000000000E+00
DEBUG_STATS_RL:               GsNm1 (DYNAMICS) mean=  0.00000000000000E+00
DEBUG_STATS_RL:               GsNm1 (DYNAMICS) S.D.=  0.00000000000000E+00
DEBUG_STATS_RL:    cg2d_b (SOLVE_FOR_PRESSURE)  min= -7.48820843436674E+03
DEBUG_STATS_RL:    cg2d_b (SOLVE_FOR_PRESSURE)  max=  2.19603477106450E+03
DEBUG_STATS_RL:    cg2d_b (SOLVE_FOR_PRESSURE) mean=  3.60008319451784E-13
DEBUG_STATS_RL:    cg2d_b (SOLVE_FOR_PRESSURE) S.D.=  9.20730314173767E+02
 cg2d: Sum(rhs),rhsMax =   7.39686090156511E-15  1.20522264267546E+00
DEBUG_STATS_RL:    cg2d_x (SOLVE_FOR_PRESSURE)  min= -1.31033012419124E+00
DEBUG_STATS_RL:    cg2d_x (SOLVE_FOR_PRESSURE)  max=  3.14089981024952E+00
DEBUG_STATS_RL:    cg2d_x (SOLVE_FOR_PRESSURE) mean= -2.47876044023365E-02
DEBUG_STATS_RL:    cg2d_x (SOLVE_FOR_PRESSURE) S.D.=  7.62604990071509E-01
DEBUG_STATS_RL:          Uvel (THERMODYNAMICS)  min= -4.51228100181736E-02
DEBUG_STATS_RL:          Uvel (THERMODYNAMICS)  max=  8.23946614698026E-02
DEBUG_STATS_RL:          Uvel (THERMODYNAMICS) mean=  4.46006533351953E-03
DEBUG_STATS_RL:          Uvel (THERMODYNAMICS) S.D.=  1.25503402183548E-02
DEBUG_STATS_RL:          Vvel (THERMODYNAMICS)  min= -5.43131072024506E-02
DEBUG_STATS_RL:          Vvel (THERMODYNAMICS)  max=  6.64710959483298E-02
DEBUG_STATS_RL:          Vvel (THERMODYNAMICS) mean=  9.07394962404039E-04
DEBUG_STATS_RL:          Vvel (THERMODYNAMICS) S.D.=  1.42265213439446E-02
DEBUG_STATS_RL:          Wvel (THERMODYNAMICS)  min= -1.50094143875161E-04
DEBUG_STATS_RL:          Wvel (THERMODYNAMICS)  max=  2.67848367720710E-04
DEBUG_STATS_RL:          Wvel (THERMODYNAMICS) mean= -2.83768310638517E-07
DEBUG_STATS_RL:          Wvel (THERMODYNAMICS) S.D.=  2.30755404976196E-05
DEBUG_STATS_RL:         Theta (THERMODYNAMICS)  min= -1.95323356757650E+00
DEBUG_STATS_RL:         Theta (THERMODYNAMICS)  max=  1.32611729219858E+01
DEBUG_STATS_RL:         Theta (THERMODYNAMICS) mean=  2.41624287435038E+00
DEBUG_STATS_RL:         Theta (THERMODYNAMICS) S.D.=  2.57467251754838E+00
DEBUG_STATS_RL:          Salt (THERMODYNAMICS)  min=  2.76192995644599E+01
DEBUG_STATS_RL:          Salt (THERMODYNAMICS)  max=  3.54511687806856E+01
DEBUG_STATS_RL:          Salt (THERMODYNAMICS) mean=  3.39368869963868E+01
DEBUG_STATS_RL:          Salt (THERMODYNAMICS) S.D.=  1.15395653842035E+00
DEBUG_STATS_RL:         GtNm1 (THERMODYNAMICS)  min=  0.00000000000000E+00
DEBUG_STATS_RL:         GtNm1 (THERMODYNAMICS)  max=  0.00000000000000E+00
DEBUG_STATS_RL:         GtNm1 (THERMODYNAMICS) mean=  0.00000000000000E+00
DEBUG_STATS_RL:         GtNm1 (THERMODYNAMICS) S.D.=  0.00000000000000E+00
DEBUG_STATS_RL:         GsNm1 (THERMODYNAMICS)  min=  0.00000000000000E+00
DEBUG_STATS_RL:         GsNm1 (THERMODYNAMICS)  max=  0.00000000000000E+00
DEBUG_STATS_RL:         GsNm1 (THERMODYNAMICS) mean=  0.00000000000000E+00
DEBUG_STATS_RL:         GsNm1 (THERMODYNAMICS) S.D.=  0.00000000000000E+00
(PID.TID 0000.0001)  MDS_WRITE_FIELD: it,rec,kS,kL,kH=       1     5   1   1   1 file=m_sst_step.0000000001
(PID.TID 0000.0001)  MDS_READ_FIELD: opening global file: xx_atemp.effective.0000000001.data
(PID.TID 0000.0001) EXF_SET_FLD: processing field "climsss",  file: SSS_monthly.labsea1979
(PID.TID 0000.0001) EXF_SET_FLD:   myIter, count0, count1:         4      1      2
(PID.TID 0000.0001) EXF_SET_FLD:   first, changed, fac:   F   F    0.49453551912568305
(PID.TID 0000.0001) EXF_SET_FLD: processing field "uwind",  file: u10m.labsea1979
(PID.TID 0000.0001) EXF_SET_FLD:   myIter, count0, count1:         4      1      2
(PID.TID 0000.0001) EXF_SET_FLD:   first, changed, fac:   F   F    0.49453551912568305
(PID.TID 0000.0001) EXF_SET_FLD: processing field "vwind",  file: v10m.labsea1979
(PID.TID 0000.0001) EXF_SET_FLD:   myIter, count0, count1:         4      1      2
(PID.TID 0000.0001) EXF_SET_FLD:   first, changed, fac:   F   F    0.49453551912568305
(PID.TID 0000.0001) EXF_SET_FLD: processing field "atemp",  file: tair.labsea1979
(PID.TID 0000.0001) EXF_SET_FLD:   myIter, count0, count1:         4      1      2
(PID.TID 0000.0001) EXF_SET_FLD:   first, changed, fac:   F   F    0.49453551912568305
(PID.TID 0000.0001) EXF_SET_FLD: processing field "aqh",  file: qa.labsea1979
(PID.TID 0000.0001) EXF_SET_FLD:   myIter, count0, count1:         4      1      2
(PID.TID 0000.0001) EXF_SET_FLD:   first, changed, fac:   F   F    0.49453551912568305
(PID.TID 0000.0001) EXF_SET_FLD: processing field "precip",  file: prate.labsea1979
(PID.TID 0000.0001) EXF_SET_FLD:   myIter, count0, count1:         4      1      2
(PID.TID 0000.0001) EXF_SET_FLD:   first, changed, fac:   F   F    0.49453551912568305
(PID.TID 0000.0001) EXF_SET_FLD: processing field "swdown",  file: fsh.labsea1979
(PID.TID 0000.0001) EXF_SET_FLD:   myIter, count0, count1:         4      1      2
(PID.TID 0000.0001) EXF_SET_FLD:   first, changed, fac:   F   F    0.49453551912568305
(PID.TID 0000.0001) EXF_SET_FLD: processing field "lwdown",  file: flo.labsea1979
(PID.TID 0000.0001) EXF_SET_FLD:   myIter, count0, count1:         4      1      2
(PID.TID 0000.0001) EXF_SET_FLD:   first, changed, fac:   F   F    0.49453551912568305
DEBUG_STATS_RL: Uice pre  iter (SEAICE_LSR  1)  min= -6.64884179984308E-03
DEBUG_STATS_RL: Uice pre  iter (SEAICE_LSR  1)  max=  1.92542735136310E-01
DEBUG_STATS_RL: Uice pre  iter (SEAICE_LSR  1) mean=  6.47686246161683E-02
DEBUG_STATS_RL: Uice pre  iter (SEAICE_LSR  1) S.D.=  6.59732959911345E-02
DEBUG_STATS_RL: Vice pre  iter (SEAICE_LSR  1)  min= -1.58345599530555E-01
DEBUG_STATS_RL: Vice pre  iter (SEAICE_LSR  1)  max=  1.04255589228155E-01
DEBUG_STATS_RL: Vice pre  iter (SEAICE_LSR  1) mean= -2.61122078454454E-02
DEBUG_STATS_RL: Vice pre  iter (SEAICE_LSR  1) S.D.=  4.54292968521038E-02
DEBUG_STATS_RL: Uice pre  iter (SEAICE_LSR  2)  min= -7.39582706169602E-03
DEBUG_STATS_RL: Uice pre  iter (SEAICE_LSR  2)  max=  2.22032103672184E-01
DEBUG_STATS_RL: Uice pre  iter (SEAICE_LSR  2) mean=  6.99701895631337E-02
DEBUG_STATS_RL: Uice pre  iter (SEAICE_LSR  2) S.D.=  7.26089122441605E-02
DEBUG_STATS_RL: Vice pre  iter (SEAICE_LSR  2)  min= -1.71770480186518E-01
DEBUG_STATS_RL: Vice pre  iter (SEAICE_LSR  2)  max=  1.08496327276558E-01
DEBUG_STATS_RL: Vice pre  iter (SEAICE_LSR  2) mean= -3.10609864818622E-02
DEBUG_STATS_RL: Vice pre  iter (SEAICE_LSR  2) S.D.=  4.99863315301168E-02
DEBUG_STATS_RL:                EtaN (DYNAMICS)  min= -1.33494653835857E-01
DEBUG_STATS_RL:                EtaN (DYNAMICS)  max=  3.19990607833400E-01
DEBUG_STATS_RL:                EtaN (DYNAMICS) mean= -2.52532747894540E-03
DEBUG_STATS_RL:                EtaN (DYNAMICS) S.D.=  7.76931608940370E-02
DEBUG_STATS_RL:                Uvel (DYNAMICS)  min= -4.51228100181736E-02
DEBUG_STATS_RL:                Uvel (DYNAMICS)  max=  8.23946614698026E-02
DEBUG_STATS_RL:                Uvel (DYNAMICS) mean=  4.46006533351953E-03
DEBUG_STATS_RL:                Uvel (DYNAMICS) S.D.=  1.25503402183548E-02
DEBUG_STATS_RL:                Vvel (DYNAMICS)  min= -5.43131072024506E-02
DEBUG_STATS_RL:                Vvel (DYNAMICS)  max=  6.64710959483298E-02
DEBUG_STATS_RL:                Vvel (DYNAMICS) mean=  9.07394962404039E-04
DEBUG_STATS_RL:                Vvel (DYNAMICS) S.D.=  1.42265213439446E-02
DEBUG_STATS_RL:                Wvel (DYNAMICS)  min= -1.50094143875161E-04
DEBUG_STATS_RL:                Wvel (DYNAMICS)  max=  2.67848367720710E-04
DEBUG_STATS_RL:                Wvel (DYNAMICS) mean= -2.83768310638517E-07
DEBUG_STATS_RL:                Wvel (DYNAMICS) S.D.=  2.30755404976196E-05
DEBUG_STATS_RL:               Theta (DYNAMICS)  min= -1.95323356757650E+00
DEBUG_STATS_RL:               Theta (DYNAMICS)  max=  1.32611729219858E+01
DEBUG_STATS_RL:               Theta (DYNAMICS) mean=  2.41624287435038E+00
DEBUG_STATS_RL:               Theta (DYNAMICS) S.D.=  2.57467251754838E+00
DEBUG_STATS_RL:                Salt (DYNAMICS)  min=  2.76192995644599E+01
DEBUG_STATS_RL:                Salt (DYNAMICS)  max=  3.54511687806856E+01
DEBUG_STATS_RL:                Salt (DYNAMICS) mean=  3.39368869963868E+01
DEBUG_STATS_RL:                Salt (DYNAMICS) S.D.=  1.15395653842035E+00
DEBUG_STATS_RL:                  Gu (DYNAMICS)  min= -3.06969616936005E-02
DEBUG_STATS_RL:                  Gu (DYNAMICS)  max=  9.72073114926338E-02
DEBUG_STATS_RL:                  Gu (DYNAMICS) mean=  3.10151082319197E-03
DEBUG_STATS_RL:                  Gu (DYNAMICS) S.D.=  1.41052551008635E-02
DEBUG_STATS_RL:                  Gv (DYNAMICS)  min= -9.53132079806336E-02
DEBUG_STATS_RL:                  Gv (DYNAMICS)  max=  5.33682068181779E-02
DEBUG_STATS_RL:                  Gv (DYNAMICS) mean= -5.06243016753196E-03
DEBUG_STATS_RL:                  Gv (DYNAMICS) S.D.=  1.53588463679137E-02
DEBUG_STATS_RL:               GuNm1 (DYNAMICS)  min= -2.35357489189921E-07
DEBUG_STATS_RL:               GuNm1 (DYNAMICS)  max=  1.71456102315459E-07
DEBUG_STATS_RL:               GuNm1 (DYNAMICS) mean= -2.01481983921301E-09
DEBUG_STATS_RL:               GuNm1 (DYNAMICS) S.D.=  4.45062316312313E-08
DEBUG_STATS_RL:               GvNm1 (DYNAMICS)  min= -1.49109605789105E-07
DEBUG_STATS_RL:               GvNm1 (DYNAMICS)  max=  1.05797935490743E-07
DEBUG_STATS_RL:               GvNm1 (DYNAMICS) mean= -1.04937902583315E-09
DEBUG_STATS_RL:               GvNm1 (DYNAMICS) S.D.=  3.09410614929426E-08
DEBUG_STATS_RL:               GtNm1 (DYNAMICS)  min=  0.00000000000000E+00
DEBUG_STATS_RL:               GtNm1 (DYNAMICS)  max=  0.00000000000000E+00
DEBUG_STATS_RL:               GtNm1 (DYNAMICS) mean=  0.00000000000000E+00
DEBUG_STATS_RL:               GtNm1 (DYNAMICS) S.D.=  0.00000000000000E+00
DEBUG_STATS_RL:               GsNm1 (DYNAMICS)  min=  0.00000000000000E+00
DEBUG_STATS_RL:               GsNm1 (DYNAMICS)  max=  0.00000000000000E+00
DEBUG_STATS_RL:               GsNm1 (DYNAMICS) mean=  0.00000000000000E+00
DEBUG_STATS_RL:               GsNm1 (DYNAMICS) S.D.=  0.00000000000000E+00
DEBUG_STATS_RL:    cg2d_b (SOLVE_FOR_PRESSURE)  min= -7.47095948274203E+03
DEBUG_STATS_RL:    cg2d_b (SOLVE_FOR_PRESSURE)  max=  2.18029189648784E+03
DEBUG_STATS_RL:    cg2d_b (SOLVE_FOR_PRESSURE) mean=  3.76682388984288E-13
DEBUG_STATS_RL:    cg2d_b (SOLVE_FOR_PRESSURE) S.D.=  9.11464014140480E+02
 cg2d: Sum(rhs),rhsMax =   8.19830314746639E-15  1.20244643428827E+00
DEBUG_STATS_RL:    cg2d_x (SOLVE_FOR_PRESSURE)  min= -1.27317826454326E+00
DEBUG_STATS_RL:    cg2d_x (SOLVE_FOR_PRESSURE)  max=  3.19622316797736E+00
DEBUG_STATS_RL:    cg2d_x (SOLVE_FOR_PRESSURE) mean= -2.95294169357201E-02
DEBUG_STATS_RL:    cg2d_x (SOLVE_FOR_PRESSURE) S.D.=  7.40273720372382E-01
DEBUG_STATS_RL:          Uvel (THERMODYNAMICS)  min= -3.64296443204297E-02
DEBUG_STATS_RL:          Uvel (THERMODYNAMICS)  max=  8.91662112566484E-02
DEBUG_STATS_RL:          Uvel (THERMODYNAMICS) mean=  5.18186102505121E-03
DEBUG_STATS_RL:          Uvel (THERMODYNAMICS) S.D.=  1.36791834404113E-02
DEBUG_STATS_RL:          Vvel (THERMODYNAMICS)  min= -8.48427067731419E-02
DEBUG_STATS_RL:          Vvel (THERMODYNAMICS)  max=  7.15709637633443E-02
DEBUG_STATS_RL:          Vvel (THERMODYNAMICS) mean= -6.25663991250623E-04
DEBUG_STATS_RL:          Vvel (THERMODYNAMICS) S.D.=  1.65568599029271E-02
DEBUG_STATS_RL:          Wvel (THERMODYNAMICS)  min= -2.02998023749463E-04
DEBUG_STATS_RL:          Wvel (THERMODYNAMICS)  max=  3.07634744219630E-04
DEBUG_STATS_RL:          Wvel (THERMODYNAMICS) mean= -2.14485636605727E-07
DEBUG_STATS_RL:          Wvel (THERMODYNAMICS) S.D.=  2.56514188295238E-05
DEBUG_STATS_RL:         Theta (THERMODYNAMICS)  min= -1.95891909892377E+00
DEBUG_STATS_RL:         Theta (THERMODYNAMICS)  max=  1.32575107273067E+01
DEBUG_STATS_RL:         Theta (THERMODYNAMICS) mean=  2.41560973729717E+00
DEBUG_STATS_RL:         Theta (THERMODYNAMICS) S.D.=  2.57506629522921E+00
DEBUG_STATS_RL:          Salt (THERMODYNAMICS)  min=  2.76241835718781E+01
DEBUG_STATS_RL:          Salt (THERMODYNAMICS)  max=  3.54512322319690E+01
DEBUG_STATS_RL:          Salt (THERMODYNAMICS) mean=  3.39367610972833E+01
DEBUG_STATS_RL:          Salt (THERMODYNAMICS) S.D.=  1.15400523729584E+00
DEBUG_STATS_RL:         GtNm1 (THERMODYNAMICS)  min=  0.00000000000000E+00
DEBUG_STATS_RL:         GtNm1 (THERMODYNAMICS)  max=  0.00000000000000E+00
DEBUG_STATS_RL:         GtNm1 (THERMODYNAMICS) mean=  0.00000000000000E+00
DEBUG_STATS_RL:         GtNm1 (THERMODYNAMICS) S.D.=  0.00000000000000E+00
DEBUG_STATS_RL:         GsNm1 (THERMODYNAMICS)  min=  0.00000000000000E+00
DEBUG_STATS_RL:         GsNm1 (THERMODYNAMICS)  max=  0.00000000000000E+00
DEBUG_STATS_RL:         GsNm1 (THERMODYNAMICS) mean=  0.00000000000000E+00
DEBUG_STATS_RL:         GsNm1 (THERMODYNAMICS) S.D.=  0.00000000000000E+00
(PID.TID 0000.0001)  MDS_WRITE_FIELD: it,rec,kS,kL,kH=       1     6   1   1   1 file=m_sst_step.0000000001
(PID.TID 0000.0001)  MDS_READ_FIELD: opening global file: xx_atemp.effective.0000000001.data
(PID.TID 0000.0001) EXF_SET_FLD: processing field "climsss",  file: SSS_monthly.labsea1979
(PID.TID 0000.0001) EXF_SET_FLD:   myIter, count0, count1:         5      1      2
(PID.TID 0000.0001) EXF_SET_FLD:   first, changed, fac:   F   F    0.49316939890710387
(PID.TID 0000.0001) EXF_SET_FLD: processing field "uwind",  file: u10m.labsea1979
(PID.TID 0000.0001) EXF_SET_FLD:   myIter, count0, count1:         5      1      2
(PID.TID 0000.0001) EXF_SET_FLD:   first, changed, fac:   F   F    0.49316939890710387
(PID.TID 0000.0001) EXF_SET_FLD: processing field "vwind",  file: v10m.labsea1979
(PID.TID 0000.0001) EXF_SET_FLD:   myIter, count0, count1:         5      1      2
(PID.TID 0000.0001) EXF_SET_FLD:   first, changed, fac:   F   F    0.49316939890710387
(PID.TID 0000.0001) EXF_SET_FLD: processing field "atemp",  file: tair.labsea1979
(PID.TID 0000.0001) EXF_SET_FLD:   myIter, count0, count1:         5      1      2
(PID.TID 0000.0001) EXF_SET_FLD:   first, changed, fac:   F   F    0.49316939890710387
(PID.TID 0000.0001) EXF_SET_FLD: processing field "aqh",  file: qa.labsea1979
(PID.TID 0000.0001) EXF_SET_FLD:   myIter, count0, count1:         5      1      2
(PID.TID 0000.0001) EXF_SET_FLD:   first, changed, fac:   F   F    0.49316939890710387
(PID.TID 0000.0001) EXF_SET_FLD: processing field "precip",  file: prate.labsea1979
(PID.TID 0000.0001) EXF_SET_FLD:   myIter, count0, count1:         5      1      2
(PID.TID 0000.0001) EXF_SET_FLD:   first, changed, fac:   F   F    0.49316939890710387
(PID.TID 0000.0001) EXF_SET_FLD: processing field "swdown",  file: fsh.labsea1979
(PID.TID 0000.0001) EXF_SET_FLD:   myIter, count0, count1:         5      1      2
(PID.TID 0000.0001) EXF_SET_FLD:   first, changed, fac:   F   F    0.49316939890710387
(PID.TID 0000.0001) EXF_SET_FLD: processing field "lwdown",  file: flo.labsea1979
(PID.TID 0000.0001) EXF_SET_FLD:   myIter, count0, count1:         5      1      2
(PID.TID 0000.0001) EXF_SET_FLD:   first, changed, fac:   F   F    0.49316939890710387
DEBUG_STATS_RL: Uice pre  iter (SEAICE_LSR  1)  min= -9.02121933428209E-03
DEBUG_STATS_RL: Uice pre  iter (SEAICE_LSR  1)  max=  2.19445684647109E-01
DEBUG_STATS_RL: Uice pre  iter (SEAICE_LSR  1) mean=  6.96639305500164E-02
DEBUG_STATS_RL: Uice pre  iter (SEAICE_LSR  1) S.D.=  7.25590715281779E-02
DEBUG_STATS_RL: Vice pre  iter (SEAICE_LSR  1)  min= -1.73112057819560E-01
DEBUG_STATS_RL: Vice pre  iter (SEAICE_LSR  1)  max=  1.05174802576007E-01
DEBUG_STATS_RL: Vice pre  iter (SEAICE_LSR  1) mean= -3.44957645455445E-02
DEBUG_STATS_RL: Vice pre  iter (SEAICE_LSR  1) S.D.=  5.17027322842478E-02
DEBUG_STATS_RL: Uice pre  iter (SEAICE_LSR  2)  min= -9.93295031152281E-03
DEBUG_STATS_RL: Uice pre  iter (SEAICE_LSR  2)  max=  2.37649472779151E-01
DEBUG_STATS_RL: Uice pre  iter (SEAICE_LSR  2) mean=  7.08960993520533E-02
DEBUG_STATS_RL: Uice pre  iter (SEAICE_LSR  2) S.D.=  7.51814019585423E-02
DEBUG_STATS_RL: Vice pre  iter (SEAICE_LSR  2)  min= -1.73458139241623E-01
DEBUG_STATS_RL: Vice pre  iter (SEAICE_LSR  2)  max=  1.02503634704981E-01
DEBUG_STATS_RL: Vice pre  iter (SEAICE_LSR  2) mean= -3.89801386769107E-02
DEBUG_STATS_RL: Vice pre  iter (SEAICE_LSR  2) S.D.=  5.44920749395359E-02
DEBUG_STATS_RL:                EtaN (DYNAMICS)  min= -1.29709672821148E-01
DEBUG_STATS_RL:                EtaN (DYNAMICS)  max=  3.25626876398525E-01
DEBUG_STATS_RL:                EtaN (DYNAMICS) mean= -3.00841690123071E-03
DEBUG_STATS_RL:                EtaN (DYNAMICS) S.D.=  7.54180814593486E-02
DEBUG_STATS_RL:                Uvel (DYNAMICS)  min= -3.64296443204297E-02
DEBUG_STATS_RL:                Uvel (DYNAMICS)  max=  8.91662112566484E-02
DEBUG_STATS_RL:                Uvel (DYNAMICS) mean=  5.18186102505121E-03
DEBUG_STATS_RL:                Uvel (DYNAMICS) S.D.=  1.36791834404113E-02
DEBUG_STATS_RL:                Vvel (DYNAMICS)  min= -8.48427067731419E-02
DEBUG_STATS_RL:                Vvel (DYNAMICS)  max=  7.15709637633443E-02
DEBUG_STATS_RL:                Vvel (DYNAMICS) mean= -6.25663991250623E-04
DEBUG_STATS_RL:                Vvel (DYNAMICS) S.D.=  1.65568599029271E-02
DEBUG_STATS_RL:                Wvel (DYNAMICS)  min= -2.02998023749463E-04
DEBUG_STATS_RL:                Wvel (DYNAMICS)  max=  3.07634744219630E-04
DEBUG_STATS_RL:                Wvel (DYNAMICS) mean= -2.14485636605727E-07
DEBUG_STATS_RL:                Wvel (DYNAMICS) S.D.=  2.56514188295238E-05
DEBUG_STATS_RL:               Theta (DYNAMICS)  min= -1.95891909892377E+00
DEBUG_STATS_RL:               Theta (DYNAMICS)  max=  1.32575107273067E+01
DEBUG_STATS_RL:               Theta (DYNAMICS) mean=  2.41560973729717E+00
DEBUG_STATS_RL:               Theta (DYNAMICS) S.D.=  2.57506629522921E+00
DEBUG_STATS_RL:                Salt (DYNAMICS)  min=  2.76241835718781E+01
DEBUG_STATS_RL:                Salt (DYNAMICS)  max=  3.54512322319690E+01
DEBUG_STATS_RL:                Salt (DYNAMICS) mean=  3.39367610972833E+01
DEBUG_STATS_RL:                Salt (DYNAMICS) S.D.=  1.15400523729584E+00
DEBUG_STATS_RL:                  Gu (DYNAMICS)  min= -3.40661284880219E-02
DEBUG_STATS_RL:                  Gu (DYNAMICS)  max=  1.09592409505600E-01
DEBUG_STATS_RL:                  Gu (DYNAMICS) mean=  3.43340148232982E-03
DEBUG_STATS_RL:                  Gu (DYNAMICS) S.D.=  1.52106643070860E-02
DEBUG_STATS_RL:                  Gv (DYNAMICS)  min= -1.19743996000496E-01
DEBUG_STATS_RL:                  Gv (DYNAMICS)  max=  5.31755908727335E-02
DEBUG_STATS_RL:                  Gv (DYNAMICS) mean= -6.43607759844790E-03
DEBUG_STATS_RL:                  Gv (DYNAMICS) S.D.=  1.74595586593088E-02
DEBUG_STATS_RL:               GuNm1 (DYNAMICS)  min= -2.94347299884312E-07
DEBUG_STATS_RL:               GuNm1 (DYNAMICS)  max=  1.78770581560366E-07
DEBUG_STATS_RL:               GuNm1 (DYNAMICS) mean= -3.06311171944926E-09
DEBUG_STATS_RL:               GuNm1 (DYNAMICS) S.D.=  4.19614199163293E-08
DEBUG_STATS_RL:               GvNm1 (DYNAMICS)  min= -1.82273635415882E-07
DEBUG_STATS_RL:               GvNm1 (DYNAMICS)  max=  1.24273330978741E-07
DEBUG_STATS_RL:               GvNm1 (DYNAMICS) mean= -1.05360009952157E-09
DEBUG_STATS_RL:               GvNm1 (DYNAMICS) S.D.=  3.58773704868018E-08
DEBUG_STATS_RL:               GtNm1 (DYNAMICS)  min=  0.00000000000000E+00
DEBUG_STATS_RL:               GtNm1 (DYNAMICS)  max=  0.00000000000000E+00
DEBUG_STATS_RL:               GtNm1 (DYNAMICS) mean=  0.00000000000000E+00
DEBUG_STATS_RL:               GtNm1 (DYNAMICS) S.D.=  0.00000000000000E+00
DEBUG_STATS_RL:               GsNm1 (DYNAMICS)  min=  0.00000000000000E+00
DEBUG_STATS_RL:               GsNm1 (DYNAMICS)  max=  0.00000000000000E+00
DEBUG_STATS_RL:               GsNm1 (DYNAMICS) mean=  0.00000000000000E+00
DEBUG_STATS_RL:               GsNm1 (DYNAMICS) S.D.=  0.00000000000000E+00
DEBUG_STATS_RL:    cg2d_b (SOLVE_FOR_PRESSURE)  min= -7.45833771571472E+03
DEBUG_STATS_RL:    cg2d_b (SOLVE_FOR_PRESSURE)  max=  2.17494903027738E+03
DEBUG_STATS_RL:    cg2d_b (SOLVE_FOR_PRESSURE) mean=  5.48538992006797E-13
DEBUG_STATS_RL:    cg2d_b (SOLVE_FOR_PRESSURE) S.D.=  9.06377010650223E+02
 cg2d: Sum(rhs),rhsMax =   1.10397802011164E-14  1.20041496847836E+00
DEBUG_STATS_RL:    cg2d_x (SOLVE_FOR_PRESSURE)  min= -1.23196163368073E+00
DEBUG_STATS_RL:    cg2d_x (SOLVE_FOR_PRESSURE)  max=  3.23727429689914E+00
DEBUG_STATS_RL:    cg2d_x (SOLVE_FOR_PRESSURE) mean= -3.45194761148861E-02
DEBUG_STATS_RL:    cg2d_x (SOLVE_FOR_PRESSURE) S.D.=  7.10912240392213E-01
DEBUG_STATS_RL:          Uvel (THERMODYNAMICS)  min= -3.59096386964116E-02
DEBUG_STATS_RL:          Uvel (THERMODYNAMICS)  max=  1.01288605318195E-01
DEBUG_STATS_RL:          Uvel (THERMODYNAMICS) mean=  5.06442107691171E-03
DEBUG_STATS_RL:          Uvel (THERMODYNAMICS) S.D.=  1.40087544095677E-02
DEBUG_STATS_RL:          Vvel (THERMODYNAMICS)  min= -1.10756263988800E-01
DEBUG_STATS_RL:          Vvel (THERMODYNAMICS)  max=  7.07208418107744E-02
DEBUG_STATS_RL:          Vvel (THERMODYNAMICS) mean= -2.17557054828365E-03
DEBUG_STATS_RL:          Vvel (THERMODYNAMICS) S.D.=  1.80912833066338E-02
DEBUG_STATS_RL:          Wvel (THERMODYNAMICS)  min= -2.43811460414301E-04
DEBUG_STATS_RL:          Wvel (THERMODYNAMICS)  max=  3.28816353261799E-04
DEBUG_STATS_RL:          Wvel (THERMODYNAMICS) mean= -1.37923543343308E-07
DEBUG_STATS_RL:          Wvel (THERMODYNAMICS) S.D.=  2.75149300864471E-05
DEBUG_STATS_RL:         Theta (THERMODYNAMICS)  min= -1.96015217723741E+00
DEBUG_STATS_RL:         Theta (THERMODYNAMICS)  max=  1.32512671183370E+01
DEBUG_STATS_RL:         Theta (THERMODYNAMICS) mean=  2.41531606071968E+00
DEBUG_STATS_RL:         Theta (THERMODYNAMICS) S.D.=  2.57483151675911E+00
DEBUG_STATS_RL:          Salt (THERMODYNAMICS)  min=  2.76290307531745E+01
DEBUG_STATS_RL:          Salt (THERMODYNAMICS)  max=  3.54512307060718E+01
DEBUG_STATS_RL:          Salt (THERMODYNAMICS) mean=  3.39367446276244E+01
DEBUG_STATS_RL:          Salt (THERMODYNAMICS) S.D.=  1.15382313156615E+00
DEBUG_STATS_RL:         GtNm1 (THERMODYNAMICS)  min=  0.00000000000000E+00
DEBUG_STATS_RL:         GtNm1 (THERMODYNAMICS)  max=  0.00000000000000E+00
DEBUG_STATS_RL:         GtNm1 (THERMODYNAMICS) mean=  0.00000000000000E+00
DEBUG_STATS_RL:         GtNm1 (THERMODYNAMICS) S.D.=  0.00000000000000E+00
DEBUG_STATS_RL:         GsNm1 (THERMODYNAMICS)  min=  0.00000000000000E+00
DEBUG_STATS_RL:         GsNm1 (THERMODYNAMICS)  max=  0.00000000000000E+00
DEBUG_STATS_RL:         GsNm1 (THERMODYNAMICS) mean=  0.00000000000000E+00
DEBUG_STATS_RL:         GsNm1 (THERMODYNAMICS) S.D.=  0.00000000000000E+00
(PID.TID 0000.0001)  MDS_WRITE_FIELD: it,rec,kS,kL,kH=       1     7   1   1   1 file=m_sst_step.0000000001
(PID.TID 0000.0001)  MDS_READ_FIELD: opening global file: xx_atemp.effective.0000000001.data
(PID.TID 0000.0001) EXF_SET_FLD: processing field "climsss",  file: SSS_monthly.labsea1979
(PID.TID 0000.0001) EXF_SET_FLD:   myIter, count0, count1:         6      1      2
(PID.TID 0000.0001) EXF_SET_FLD:   first, changed, fac:   F   F    0.49180327868852458
(PID.TID 0000.0001) EXF_SET_FLD: processing field "uwind",  file: u10m.labsea1979
(PID.TID 0000.0001) EXF_SET_FLD:   myIter, count0, count1:         6      1      2
(PID.TID 0000.0001) EXF_SET_FLD:   first, changed, fac:   F   F    0.49180327868852458
(PID.TID 0000.0001) EXF_SET_FLD: processing field "vwind",  file: v10m.labsea1979
(PID.TID 0000.0001) EXF_SET_FLD:   myIter, count0, count1:         6      1      2
(PID.TID 0000.0001) EXF_SET_FLD:   first, changed, fac:   F   F    0.49180327868852458
(PID.TID 0000.0001) EXF_SET_FLD: processing field "atemp",  file: tair.labsea1979
(PID.TID 0000.0001) EXF_SET_FLD:   myIter, count0, count1:         6      1      2
(PID.TID 0000.0001) EXF_SET_FLD:   first, changed, fac:   F   F    0.49180327868852458
(PID.TID 0000.0001) EXF_SET_FLD: processing field "aqh",  file: qa.labsea1979
(PID.TID 0000.0001) EXF_SET_FLD:   myIter, count0, count1:         6      1      2
(PID.TID 0000.0001) EXF_SET_FLD:   first, changed, fac:   F   F    0.49180327868852458
(PID.TID 0000.0001) EXF_SET_FLD: processing field "precip",  file: prate.labsea1979
(PID.TID 0000.0001) EXF_SET_FLD:   myIter, count0, count1:         6      1      2
(PID.TID 0000.0001) EXF_SET_FLD:   first, changed, fac:   F   F    0.49180327868852458
(PID.TID 0000.0001) EXF_SET_FLD: processing field "swdown",  file: fsh.labsea1979
(PID.TID 0000.0001) EXF_SET_FLD:   myIter, count0, count1:         6      1      2
(PID.TID 0000.0001) EXF_SET_FLD:   first, changed, fac:   F   F    0.49180327868852458
(PID.TID 0000.0001) EXF_SET_FLD: processing field "lwdown",  file: flo.labsea1979
(PID.TID 0000.0001) EXF_SET_FLD:   myIter, count0, count1:         6      1      2
(PID.TID 0000.0001) EXF_SET_FLD:   first, changed, fac:   F   F    0.49180327868852458
DEBUG_STATS_RL: Uice pre  iter (SEAICE_LSR  1)  min= -1.19106759196626E-02
DEBUG_STATS_RL: Uice pre  iter (SEAICE_LSR  1)  max=  2.40859973799500E-01
DEBUG_STATS_RL: Uice pre  iter (SEAICE_LSR  1) mean=  7.02597534858669E-02
DEBUG_STATS_RL: Uice pre  iter (SEAICE_LSR  1) S.D.=  7.57773428261264E-02
DEBUG_STATS_RL: Vice pre  iter (SEAICE_LSR  1)  min= -1.74132342678203E-01
DEBUG_STATS_RL: Vice pre  iter (SEAICE_LSR  1)  max=  9.66358613081392E-02
DEBUG_STATS_RL: Vice pre  iter (SEAICE_LSR  1) mean= -4.28491368243097E-02
DEBUG_STATS_RL: Vice pre  iter (SEAICE_LSR  1) S.D.=  5.63763392291776E-02
DEBUG_STATS_RL: Uice pre  iter (SEAICE_LSR  2)  min= -1.30564509125772E-02
DEBUG_STATS_RL: Uice pre  iter (SEAICE_LSR  2)  max=  2.47901039964918E-01
DEBUG_STATS_RL: Uice pre  iter (SEAICE_LSR  2) mean=  6.80717062408255E-02
DEBUG_STATS_RL: Uice pre  iter (SEAICE_LSR  2) S.D.=  7.48548542543948E-02
DEBUG_STATS_RL: Vice pre  iter (SEAICE_LSR  2)  min= -1.68314830999122E-01
DEBUG_STATS_RL: Vice pre  iter (SEAICE_LSR  2)  max=  8.87290074915896E-02
DEBUG_STATS_RL: Vice pre  iter (SEAICE_LSR  2) mean= -4.61137817409736E-02
DEBUG_STATS_RL: Vice pre  iter (SEAICE_LSR  2) S.D.=  5.74118961796509E-02
DEBUG_STATS_RL:                EtaN (DYNAMICS)  min= -1.25510578434403E-01
DEBUG_STATS_RL:                EtaN (DYNAMICS)  max=  3.29809109672271E-01
DEBUG_STATS_RL:                EtaN (DYNAMICS) mean= -3.51679735470946E-03
DEBUG_STATS_RL:                EtaN (DYNAMICS) S.D.=  7.24267737471181E-02
DEBUG_STATS_RL:                Uvel (DYNAMICS)  min= -3.59096386964116E-02
DEBUG_STATS_RL:                Uvel (DYNAMICS)  max=  1.01288605318195E-01
DEBUG_STATS_RL:                Uvel (DYNAMICS) mean=  5.06442107691171E-03
DEBUG_STATS_RL:                Uvel (DYNAMICS) S.D.=  1.40087544095677E-02
DEBUG_STATS_RL:                Vvel (DYNAMICS)  min= -1.10756263988800E-01
DEBUG_STATS_RL:                Vvel (DYNAMICS)  max=  7.07208418107744E-02
DEBUG_STATS_RL:                Vvel (DYNAMICS) mean= -2.17557054828365E-03
DEBUG_STATS_RL:                Vvel (DYNAMICS) S.D.=  1.80912833066338E-02
DEBUG_STATS_RL:                Wvel (DYNAMICS)  min= -2.43811460414301E-04
DEBUG_STATS_RL:                Wvel (DYNAMICS)  max=  3.28816353261799E-04
DEBUG_STATS_RL:                Wvel (DYNAMICS) mean= -1.37923543343308E-07
DEBUG_STATS_RL:                Wvel (DYNAMICS) S.D.=  2.75149300864471E-05
DEBUG_STATS_RL:               Theta (DYNAMICS)  min= -1.96015217723741E+00
DEBUG_STATS_RL:               Theta (DYNAMICS)  max=  1.32512671183370E+01
DEBUG_STATS_RL:               Theta (DYNAMICS) mean=  2.41531606071968E+00
DEBUG_STATS_RL:               Theta (DYNAMICS) S.D.=  2.57483151675911E+00
DEBUG_STATS_RL:                Salt (DYNAMICS)  min=  2.76290307531745E+01
DEBUG_STATS_RL:                Salt (DYNAMICS)  max=  3.54512307060718E+01
DEBUG_STATS_RL:                Salt (DYNAMICS) mean=  3.39367446276244E+01
DEBUG_STATS_RL:                Salt (DYNAMICS) S.D.=  1.15382313156615E+00
DEBUG_STATS_RL:                  Gu (DYNAMICS)  min= -4.45840116892564E-02
DEBUG_STATS_RL:                  Gu (DYNAMICS)  max=  1.13252404039499E-01
DEBUG_STATS_RL:                  Gu (DYNAMICS) mean=  3.02808241162629E-03
DEBUG_STATS_RL:                  Gu (DYNAMICS) S.D.=  1.59063121238859E-02
DEBUG_STATS_RL:                  Gv (DYNAMICS)  min= -1.34630447324914E-01
DEBUG_STATS_RL:                  Gv (DYNAMICS)  max=  4.81174890382834E-02
DEBUG_STATS_RL:                  Gv (DYNAMICS) mean= -7.41639241987073E-03
DEBUG_STATS_RL:                  Gv (DYNAMICS) S.D.=  1.85638365104652E-02
DEBUG_STATS_RL:               GuNm1 (DYNAMICS)  min= -3.33271036892912E-07
DEBUG_STATS_RL:               GuNm1 (DYNAMICS)  max=  1.87479663955264E-07
DEBUG_STATS_RL:               GuNm1 (DYNAMICS) mean= -3.31200046769613E-09
DEBUG_STATS_RL:               GuNm1 (DYNAMICS) S.D.=  4.08419141881986E-08
DEBUG_STATS_RL:               GvNm1 (DYNAMICS)  min= -2.04912919624493E-07
DEBUG_STATS_RL:               GvNm1 (DYNAMICS)  max=  1.56710147054454E-07
DEBUG_STATS_RL:               GvNm1 (DYNAMICS) mean= -8.96938696733871E-10
DEBUG_STATS_RL:               GvNm1 (DYNAMICS) S.D.=  3.95873164870995E-08
DEBUG_STATS_RL:               GtNm1 (DYNAMICS)  min=  0.00000000000000E+00
DEBUG_STATS_RL:               GtNm1 (DYNAMICS)  max=  0.00000000000000E+00
DEBUG_STATS_RL:               GtNm1 (DYNAMICS) mean=  0.00000000000000E+00
DEBUG_STATS_RL:               GtNm1 (DYNAMICS) S.D.=  0.00000000000000E+00
DEBUG_STATS_RL:               GsNm1 (DYNAMICS)  min=  0.00000000000000E+00
DEBUG_STATS_RL:               GsNm1 (DYNAMICS)  max=  0.00000000000000E+00
DEBUG_STATS_RL:               GsNm1 (DYNAMICS) mean=  0.00000000000000E+00
DEBUG_STATS_RL:               GsNm1 (DYNAMICS) S.D.=  0.00000000000000E+00
DEBUG_STATS_RL:    cg2d_b (SOLVE_FOR_PRESSURE)  min= -7.43169656861264E+03
DEBUG_STATS_RL:    cg2d_b (SOLVE_FOR_PRESSURE)  max=  2.17598296942613E+03
DEBUG_STATS_RL:    cg2d_b (SOLVE_FOR_PRESSURE) mean=  6.25277607468888E-13
DEBUG_STATS_RL:    cg2d_b (SOLVE_FOR_PRESSURE) S.D.=  9.02750100849705E+02
 cg2d: Sum(rhs),rhsMax =   1.26600119276787E-14  1.19612709187935E+00
DEBUG_STATS_RL:    cg2d_x (SOLVE_FOR_PRESSURE)  min= -1.18794061890861E+00
DEBUG_STATS_RL:    cg2d_x (SOLVE_FOR_PRESSURE)  max=  3.24511049575802E+00
DEBUG_STATS_RL:    cg2d_x (SOLVE_FOR_PRESSURE) mean= -3.88654400026504E-02
DEBUG_STATS_RL:    cg2d_x (SOLVE_FOR_PRESSURE) S.D.=  6.81167535252051E-01
DEBUG_STATS_RL:          Uvel (THERMODYNAMICS)  min= -3.57601727937776E-02
DEBUG_STATS_RL:          Uvel (THERMODYNAMICS)  max=  1.04775938290593E-01
DEBUG_STATS_RL:          Uvel (THERMODYNAMICS) mean=  4.39725630124973E-03
DEBUG_STATS_RL:          Uvel (THERMODYNAMICS) S.D.=  1.39028540310370E-02
DEBUG_STATS_RL:          Vvel (THERMODYNAMICS)  min= -1.27584762387762E-01
DEBUG_STATS_RL:          Vvel (THERMODYNAMICS)  max=  6.50083276838834E-02
DEBUG_STATS_RL:          Vvel (THERMODYNAMICS) mean= -3.36887217581842E-03
DEBUG_STATS_RL:          Vvel (THERMODYNAMICS) S.D.=  1.85890275650144E-02
DEBUG_STATS_RL:          Wvel (THERMODYNAMICS)  min= -2.67954696014334E-04
DEBUG_STATS_RL:          Wvel (THERMODYNAMICS)  max=  3.29804232734307E-04
DEBUG_STATS_RL:          Wvel (THERMODYNAMICS) mean= -4.85616750769084E-08
DEBUG_STATS_RL:          Wvel (THERMODYNAMICS) S.D.=  2.84164537902806E-05
DEBUG_STATS_RL:         Theta (THERMODYNAMICS)  min= -1.95963016104377E+00
DEBUG_STATS_RL:         Theta (THERMODYNAMICS)  max=  1.32396343409662E+01
DEBUG_STATS_RL:         Theta (THERMODYNAMICS) mean=  2.41506584132490E+00
DEBUG_STATS_RL:         Theta (THERMODYNAMICS) S.D.=  2.57443936967395E+00
DEBUG_STATS_RL:          Salt (THERMODYNAMICS)  min=  2.76338867569799E+01
DEBUG_STATS_RL:          Salt (THERMODYNAMICS)  max=  3.54511617149686E+01
DEBUG_STATS_RL:          Salt (THERMODYNAMICS) mean=  3.39367496241633E+01
DEBUG_STATS_RL:          Salt (THERMODYNAMICS) S.D.=  1.15359229307448E+00
DEBUG_STATS_RL:         GtNm1 (THERMODYNAMICS)  min=  0.00000000000000E+00
DEBUG_STATS_RL:         GtNm1 (THERMODYNAMICS)  max=  0.00000000000000E+00
DEBUG_STATS_RL:         GtNm1 (THERMODYNAMICS) mean=  0.00000000000000E+00
DEBUG_STATS_RL:         GtNm1 (THERMODYNAMICS) S.D.=  0.00000000000000E+00
DEBUG_STATS_RL:         GsNm1 (THERMODYNAMICS)  min=  0.00000000000000E+00
DEBUG_STATS_RL:         GsNm1 (THERMODYNAMICS)  max=  0.00000000000000E+00
DEBUG_STATS_RL:         GsNm1 (THERMODYNAMICS) mean=  0.00000000000000E+00
DEBUG_STATS_RL:         GsNm1 (THERMODYNAMICS) S.D.=  0.00000000000000E+00
(PID.TID 0000.0001)  MDS_WRITE_FIELD: it,rec,kS,kL,kH=       1     8   1   1   1 file=m_sst_step.0000000001
(PID.TID 0000.0001)  MDS_READ_FIELD: opening global file: xx_atemp.effective.0000000001.data
(PID.TID 0000.0001) EXF_SET_FLD: processing field "climsss",  file: SSS_monthly.labsea1979
(PID.TID 0000.0001) EXF_SET_FLD:   myIter, count0, count1:         7      1      2
(PID.TID 0000.0001) EXF_SET_FLD:   first, changed, fac:   F   F    0.49043715846994540
(PID.TID 0000.0001) EXF_SET_FLD: processing field "uwind",  file: u10m.labsea1979
(PID.TID 0000.0001) EXF_SET_FLD:   myIter, count0, count1:         7      1      2
(PID.TID 0000.0001) EXF_SET_FLD:   first, changed, fac:   F   F    0.49043715846994540
(PID.TID 0000.0001) EXF_SET_FLD: processing field "vwind",  file: v10m.labsea1979
(PID.TID 0000.0001) EXF_SET_FLD:   myIter, count0, count1:         7      1      2
(PID.TID 0000.0001) EXF_SET_FLD:   first, changed, fac:   F   F    0.49043715846994540
(PID.TID 0000.0001) EXF_SET_FLD: processing field "atemp",  file: tair.labsea1979
(PID.TID 0000.0001) EXF_SET_FLD:   myIter, count0, count1:         7      1      2
(PID.TID 0000.0001) EXF_SET_FLD:   first, changed, fac:   F   F    0.49043715846994540
(PID.TID 0000.0001) EXF_SET_FLD: processing field "aqh",  file: qa.labsea1979
(PID.TID 0000.0001) EXF_SET_FLD:   myIter, count0, count1:         7      1      2
(PID.TID 0000.0001) EXF_SET_FLD:   first, changed, fac:   F   F    0.49043715846994540
(PID.TID 0000.0001) EXF_SET_FLD: processing field "precip",  file: prate.labsea1979
(PID.TID 0000.0001) EXF_SET_FLD:   myIter, count0, count1:         7      1      2
(PID.TID 0000.0001) EXF_SET_FLD:   first, changed, fac:   F   F    0.49043715846994540
(PID.TID 0000.0001) EXF_SET_FLD: processing field "swdown",  file: fsh.labsea1979
(PID.TID 0000.0001) EXF_SET_FLD:   myIter, count0, count1:         7      1      2
(PID.TID 0000.0001) EXF_SET_FLD:   first, changed, fac:   F   F    0.49043715846994540
(PID.TID 0000.0001) EXF_SET_FLD: processing field "lwdown",  file: flo.labsea1979
(PID.TID 0000.0001) EXF_SET_FLD:   myIter, count0, count1:         7      1      2
(PID.TID 0000.0001) EXF_SET_FLD:   first, changed, fac:   F   F    0.49043715846994540
DEBUG_STATS_RL: Uice pre  iter (SEAICE_LSR  1)  min= -1.54549194525885E-02
DEBUG_STATS_RL: Uice pre  iter (SEAICE_LSR  1)  max=  2.53524286292195E-01
DEBUG_STATS_RL: Uice pre  iter (SEAICE_LSR  1) mean=  6.68799365318405E-02
DEBUG_STATS_RL: Uice pre  iter (SEAICE_LSR  1) S.D.=  7.54478852963732E-02
DEBUG_STATS_RL: Vice pre  iter (SEAICE_LSR  1)  min= -1.68373183021219E-01
DEBUG_STATS_RL: Vice pre  iter (SEAICE_LSR  1)  max=  8.10859368452300E-02
DEBUG_STATS_RL: Vice pre  iter (SEAICE_LSR  1) mean= -4.94905385201188E-02
DEBUG_STATS_RL: Vice pre  iter (SEAICE_LSR  1) S.D.=  5.89447951203489E-02
DEBUG_STATS_RL: Uice pre  iter (SEAICE_LSR  2)  min= -1.68104910559784E-02
DEBUG_STATS_RL: Uice pre  iter (SEAICE_LSR  2)  max=  2.51381266335640E-01
DEBUG_STATS_RL: Uice pre  iter (SEAICE_LSR  2) mean=  6.26056742415780E-02
DEBUG_STATS_RL: Uice pre  iter (SEAICE_LSR  2) S.D.=  7.23215228187506E-02
DEBUG_STATS_RL: Vice pre  iter (SEAICE_LSR  2)  min= -1.70146515867186E-01
DEBUG_STATS_RL: Vice pre  iter (SEAICE_LSR  2)  max=  7.01571636850256E-02
DEBUG_STATS_RL: Vice pre  iter (SEAICE_LSR  2) mean= -5.12009841743951E-02
DEBUG_STATS_RL: Vice pre  iter (SEAICE_LSR  2) S.D.=  5.84735965012174E-02
DEBUG_STATS_RL:                EtaN (DYNAMICS)  min= -1.21025777222850E-01
DEBUG_STATS_RL:                EtaN (DYNAMICS)  max=  3.30607450971721E-01
DEBUG_STATS_RL:                EtaN (DYNAMICS) mean= -3.95955825447761E-03
DEBUG_STATS_RL:                EtaN (DYNAMICS) S.D.=  6.93964235759455E-02
DEBUG_STATS_RL:                Uvel (DYNAMICS)  min= -3.57601727937776E-02
DEBUG_STATS_RL:                Uvel (DYNAMICS)  max=  1.04775938290593E-01
DEBUG_STATS_RL:                Uvel (DYNAMICS) mean=  4.39725630124973E-03
DEBUG_STATS_RL:                Uvel (DYNAMICS) S.D.=  1.39028540310370E-02
DEBUG_STATS_RL:                Vvel (DYNAMICS)  min= -1.27584762387762E-01
DEBUG_STATS_RL:                Vvel (DYNAMICS)  max=  6.50083276838834E-02
DEBUG_STATS_RL:                Vvel (DYNAMICS) mean= -3.36887217581842E-03
DEBUG_STATS_RL:                Vvel (DYNAMICS) S.D.=  1.85890275650144E-02
DEBUG_STATS_RL:                Wvel (DYNAMICS)  min= -2.67954696014334E-04
DEBUG_STATS_RL:                Wvel (DYNAMICS)  max=  3.29804232734307E-04
DEBUG_STATS_RL:                Wvel (DYNAMICS) mean= -4.85616750769084E-08
DEBUG_STATS_RL:                Wvel (DYNAMICS) S.D.=  2.84164537902806E-05
DEBUG_STATS_RL:               Theta (DYNAMICS)  min= -1.95963016104377E+00
DEBUG_STATS_RL:               Theta (DYNAMICS)  max=  1.32396343409662E+01
DEBUG_STATS_RL:               Theta (DYNAMICS) mean=  2.41506584132490E+00
DEBUG_STATS_RL:               Theta (DYNAMICS) S.D.=  2.57443936967395E+00
DEBUG_STATS_RL:                Salt (DYNAMICS)  min=  2.76338867569799E+01
DEBUG_STATS_RL:                Salt (DYNAMICS)  max=  3.54511617149686E+01
DEBUG_STATS_RL:                Salt (DYNAMICS) mean=  3.39367496241633E+01
DEBUG_STATS_RL:                Salt (DYNAMICS) S.D.=  1.15359229307448E+00
DEBUG_STATS_RL:                  Gu (DYNAMICS)  min= -5.18639383665581E-02
DEBUG_STATS_RL:                  Gu (DYNAMICS)  max=  1.08500044377568E-01
DEBUG_STATS_RL:                  Gu (DYNAMICS) mean=  2.22152146947003E-03
DEBUG_STATS_RL:                  Gu (DYNAMICS) S.D.=  1.62488741545212E-02
DEBUG_STATS_RL:                  Gv (DYNAMICS)  min= -1.40216393355450E-01
DEBUG_STATS_RL:                  Gv (DYNAMICS)  max=  4.07135165171764E-02
DEBUG_STATS_RL:                  Gv (DYNAMICS) mean= -7.84361289825817E-03
DEBUG_STATS_RL:                  Gv (DYNAMICS) S.D.=  1.86090017356244E-02
DEBUG_STATS_RL:               GuNm1 (DYNAMICS)  min= -3.48473911940039E-07
DEBUG_STATS_RL:               GuNm1 (DYNAMICS)  max=  1.90416017948020E-07
DEBUG_STATS_RL:               GuNm1 (DYNAMICS) mean= -3.12306477013844E-09
DEBUG_STATS_RL:               GuNm1 (DYNAMICS) S.D.=  4.09417632400161E-08
DEBUG_STATS_RL:               GvNm1 (DYNAMICS)  min= -2.15359173477238E-07
DEBUG_STATS_RL:               GvNm1 (DYNAMICS)  max=  1.82438063100015E-07
DEBUG_STATS_RL:               GvNm1 (DYNAMICS) mean= -6.53519601924237E-10
DEBUG_STATS_RL:               GvNm1 (DYNAMICS) S.D.=  4.16452354556402E-08
DEBUG_STATS_RL:               GtNm1 (DYNAMICS)  min=  0.00000000000000E+00
DEBUG_STATS_RL:               GtNm1 (DYNAMICS)  max=  0.00000000000000E+00
DEBUG_STATS_RL:               GtNm1 (DYNAMICS) mean=  0.00000000000000E+00
DEBUG_STATS_RL:               GtNm1 (DYNAMICS) S.D.=  0.00000000000000E+00
DEBUG_STATS_RL:               GsNm1 (DYNAMICS)  min=  0.00000000000000E+00
DEBUG_STATS_RL:               GsNm1 (DYNAMICS)  max=  0.00000000000000E+00
DEBUG_STATS_RL:               GsNm1 (DYNAMICS) mean=  0.00000000000000E+00
DEBUG_STATS_RL:               GsNm1 (DYNAMICS) S.D.=  0.00000000000000E+00
DEBUG_STATS_RL:    cg2d_b (SOLVE_FOR_PRESSURE)  min= -7.37985604508144E+03
DEBUG_STATS_RL:    cg2d_b (SOLVE_FOR_PRESSURE)  max=  2.18366607280417E+03
DEBUG_STATS_RL:    cg2d_b (SOLVE_FOR_PRESSURE) mean=  5.75823833059985E-13
DEBUG_STATS_RL:    cg2d_b (SOLVE_FOR_PRESSURE) S.D.=  8.98963545839553E+02
 cg2d: Sum(rhs),rhsMax =   1.17059140158915E-14  1.18778339080377E+00
DEBUG_STATS_RL:    cg2d_x (SOLVE_FOR_PRESSURE)  min= -1.13929441834600E+00
DEBUG_STATS_RL:    cg2d_x (SOLVE_FOR_PRESSURE)  max=  3.20616731162329E+00
DEBUG_STATS_RL:    cg2d_x (SOLVE_FOR_PRESSURE) mean= -4.15672442272101E-02
DEBUG_STATS_RL:    cg2d_x (SOLVE_FOR_PRESSURE) S.D.=  6.51074617231998E-01
DEBUG_STATS_RL:          Uvel (THERMODYNAMICS)  min= -4.34802359623514E-02
DEBUG_STATS_RL:          Uvel (THERMODYNAMICS)  max=  9.99752242998811E-02
DEBUG_STATS_RL:          Uvel (THERMODYNAMICS) mean=  3.48264152589945E-03
DEBUG_STATS_RL:          Uvel (THERMODYNAMICS) S.D.=  1.35343125506134E-02
DEBUG_STATS_RL:          Vvel (THERMODYNAMICS)  min= -1.33439207289254E-01
DEBUG_STATS_RL:          Vvel (THERMODYNAMICS)  max=  5.60260700766949E-02
DEBUG_STATS_RL:          Vvel (THERMODYNAMICS) mean= -4.02696574872760E-03
DEBUG_STATS_RL:          Vvel (THERMODYNAMICS) S.D.=  1.80273334212744E-02
DEBUG_STATS_RL:          Wvel (THERMODYNAMICS)  min= -2.73348162229354E-04
DEBUG_STATS_RL:          Wvel (THERMODYNAMICS)  max=  3.13596923283680E-04
DEBUG_STATS_RL:          Wvel (THERMODYNAMICS) mean=  4.73709411313726E-08
DEBUG_STATS_RL:          Wvel (THERMODYNAMICS) S.D.=  2.82661454219209E-05
DEBUG_STATS_RL:         Theta (THERMODYNAMICS)  min= -1.95943609422384E+00
DEBUG_STATS_RL:         Theta (THERMODYNAMICS)  max=  1.32225113409296E+01
DEBUG_STATS_RL:         Theta (THERMODYNAMICS) mean=  2.41480286619418E+00
DEBUG_STATS_RL:         Theta (THERMODYNAMICS) S.D.=  2.57398860030337E+00
DEBUG_STATS_RL:          Salt (THERMODYNAMICS)  min=  2.76387468555707E+01
DEBUG_STATS_RL:          Salt (THERMODYNAMICS)  max=  3.54510358217953E+01
DEBUG_STATS_RL:          Salt (THERMODYNAMICS) mean=  3.39367601804953E+01
DEBUG_STATS_RL:          Salt (THERMODYNAMICS) S.D.=  1.15334890349538E+00
DEBUG_STATS_RL:         GtNm1 (THERMODYNAMICS)  min=  0.00000000000000E+00
DEBUG_STATS_RL:         GtNm1 (THERMODYNAMICS)  max=  0.00000000000000E+00
DEBUG_STATS_RL:         GtNm1 (THERMODYNAMICS) mean=  0.00000000000000E+00
DEBUG_STATS_RL:         GtNm1 (THERMODYNAMICS) S.D.=  0.00000000000000E+00
DEBUG_STATS_RL:         GsNm1 (THERMODYNAMICS)  min=  0.00000000000000E+00
DEBUG_STATS_RL:         GsNm1 (THERMODYNAMICS)  max=  0.00000000000000E+00
DEBUG_STATS_RL:         GsNm1 (THERMODYNAMICS) mean=  0.00000000000000E+00
DEBUG_STATS_RL:         GsNm1 (THERMODYNAMICS) S.D.=  0.00000000000000E+00
(PID.TID 0000.0001)  MDS_WRITE_FIELD: it,rec,kS,kL,kH=       1     9   1   1   1 file=m_sst_step.0000000001
(PID.TID 0000.0001)  MDS_READ_FIELD: opening global file: xx_atemp.effective.0000000001.data
(PID.TID 0000.0001) EXF_SET_FLD: processing field "climsss",  file: SSS_monthly.labsea1979
(PID.TID 0000.0001) EXF_SET_FLD:   myIter, count0, count1:         8      1      2
(PID.TID 0000.0001) EXF_SET_FLD:   first, changed, fac:   F   F    0.48907103825136611
(PID.TID 0000.0001) EXF_SET_FLD: processing field "uwind",  file: u10m.labsea1979
(PID.TID 0000.0001) EXF_SET_FLD:   myIter, count0, count1:         8      1      2
(PID.TID 0000.0001) EXF_SET_FLD:   first, changed, fac:   F   F    0.48907103825136611
(PID.TID 0000.0001) EXF_SET_FLD: processing field "vwind",  file: v10m.labsea1979
(PID.TID 0000.0001) EXF_SET_FLD:   myIter, count0, count1:         8      1      2
(PID.TID 0000.0001) EXF_SET_FLD:   first, changed, fac:   F   F    0.48907103825136611
(PID.TID 0000.0001) EXF_SET_FLD: processing field "atemp",  file: tair.labsea1979
(PID.TID 0000.0001) EXF_SET_FLD:   myIter, count0, count1:         8      1      2
(PID.TID 0000.0001) EXF_SET_FLD:   first, changed, fac:   F   F    0.48907103825136611
(PID.TID 0000.0001) EXF_SET_FLD: processing field "aqh",  file: qa.labsea1979
(PID.TID 0000.0001) EXF_SET_FLD:   myIter, count0, count1:         8      1      2
(PID.TID 0000.0001) EXF_SET_FLD:   first, changed, fac:   F   F    0.48907103825136611
(PID.TID 0000.0001) EXF_SET_FLD: processing field "precip",  file: prate.labsea1979
(PID.TID 0000.0001) EXF_SET_FLD:   myIter, count0, count1:         8      1      2
(PID.TID 0000.0001) EXF_SET_FLD:   first, changed, fac:   F   F    0.48907103825136611
(PID.TID 0000.0001) EXF_SET_FLD: processing field "swdown",  file: fsh.labsea1979
(PID.TID 0000.0001) EXF_SET_FLD:   myIter, count0, count1:         8      1      2
(PID.TID 0000.0001) EXF_SET_FLD:   first, changed, fac:   F   F    0.48907103825136611
(PID.TID 0000.0001) EXF_SET_FLD: processing field "lwdown",  file: flo.labsea1979
(PID.TID 0000.0001) EXF_SET_FLD:   myIter, count0, count1:         8      1      2
(PID.TID 0000.0001) EXF_SET_FLD:   first, changed, fac:   F   F    0.48907103825136611
DEBUG_STATS_RL: Uice pre  iter (SEAICE_LSR  1)  min= -1.95687208100127E-02
DEBUG_STATS_RL: Uice pre  iter (SEAICE_LSR  1)  max=  2.56695252608154E-01
DEBUG_STATS_RL: Uice pre  iter (SEAICE_LSR  1) mean=  6.10102626007859E-02
DEBUG_STATS_RL: Uice pre  iter (SEAICE_LSR  1) S.D.=  7.26515133443649E-02
DEBUG_STATS_RL: Vice pre  iter (SEAICE_LSR  1)  min= -1.74351841639938E-01
DEBUG_STATS_RL: Vice pre  iter (SEAICE_LSR  1)  max=  6.17815719868620E-02
DEBUG_STATS_RL: Vice pre  iter (SEAICE_LSR  1) mean= -5.34332922103154E-02
DEBUG_STATS_RL: Vice pre  iter (SEAICE_LSR  1) S.D.=  5.91879685811009E-02
DEBUG_STATS_RL: Uice pre  iter (SEAICE_LSR  2)  min= -2.10631196463157E-02
DEBUG_STATS_RL: Uice pre  iter (SEAICE_LSR  2)  max=  2.47741110498679E-01
DEBUG_STATS_RL: Uice pre  iter (SEAICE_LSR  2) mean=  5.58563099525020E-02
DEBUG_STATS_RL: Uice pre  iter (SEAICE_LSR  2) S.D.=  6.83562873807433E-02
DEBUG_STATS_RL: Vice pre  iter (SEAICE_LSR  2)  min= -1.71270231909260E-01
DEBUG_STATS_RL: Vice pre  iter (SEAICE_LSR  2)  max=  5.00408736690830E-02
DEBUG_STATS_RL: Vice pre  iter (SEAICE_LSR  2) mean= -5.35471708937615E-02
DEBUG_STATS_RL: Vice pre  iter (SEAICE_LSR  2) S.D.=  5.75117440524753E-02
DEBUG_STATS_RL:                EtaN (DYNAMICS)  min= -1.16069768363218E-01
DEBUG_STATS_RL:                EtaN (DYNAMICS)  max=  3.26639972250630E-01
DEBUG_STATS_RL:                EtaN (DYNAMICS) mean= -4.23481440026184E-03
DEBUG_STATS_RL:                EtaN (DYNAMICS) S.D.=  6.63305979493866E-02
DEBUG_STATS_RL:                Uvel (DYNAMICS)  min= -4.34802359623514E-02
DEBUG_STATS_RL:                Uvel (DYNAMICS)  max=  9.99752242998811E-02
DEBUG_STATS_RL:                Uvel (DYNAMICS) mean=  3.48264152589945E-03
DEBUG_STATS_RL:                Uvel (DYNAMICS) S.D.=  1.35343125506134E-02
DEBUG_STATS_RL:                Vvel (DYNAMICS)  min= -1.33439207289254E-01
DEBUG_STATS_RL:                Vvel (DYNAMICS)  max=  5.60260700766949E-02
DEBUG_STATS_RL:                Vvel (DYNAMICS) mean= -4.02696574872760E-03
DEBUG_STATS_RL:                Vvel (DYNAMICS) S.D.=  1.80273334212744E-02
DEBUG_STATS_RL:                Wvel (DYNAMICS)  min= -2.73348162229354E-04
DEBUG_STATS_RL:                Wvel (DYNAMICS)  max=  3.13596923283680E-04
DEBUG_STATS_RL:                Wvel (DYNAMICS) mean=  4.73709411313726E-08
DEBUG_STATS_RL:                Wvel (DYNAMICS) S.D.=  2.82661454219209E-05
DEBUG_STATS_RL:               Theta (DYNAMICS)  min= -1.95943609422384E+00
DEBUG_STATS_RL:               Theta (DYNAMICS)  max=  1.32225113409296E+01
DEBUG_STATS_RL:               Theta (DYNAMICS) mean=  2.41480286619418E+00
DEBUG_STATS_RL:               Theta (DYNAMICS) S.D.=  2.57398860030337E+00
DEBUG_STATS_RL:                Salt (DYNAMICS)  min=  2.76387468555707E+01
DEBUG_STATS_RL:                Salt (DYNAMICS)  max=  3.54510358217953E+01
DEBUG_STATS_RL:                Salt (DYNAMICS) mean=  3.39367601804953E+01
DEBUG_STATS_RL:                Salt (DYNAMICS) S.D.=  1.15334890349538E+00
DEBUG_STATS_RL:                  Gu (DYNAMICS)  min= -5.98368153072788E-02
DEBUG_STATS_RL:                  Gu (DYNAMICS)  max=  9.68873121299254E-02
DEBUG_STATS_RL:                  Gu (DYNAMICS) mean=  1.30194972949356E-03
DEBUG_STATS_RL:                  Gu (DYNAMICS) S.D.=  1.61566615235229E-02
DEBUG_STATS_RL:                  Gv (DYNAMICS)  min= -1.36271217267994E-01
DEBUG_STATS_RL:                  Gv (DYNAMICS)  max=  3.83573237348649E-02
DEBUG_STATS_RL:                  Gv (DYNAMICS) mean= -7.71950831958533E-03
DEBUG_STATS_RL:                  Gv (DYNAMICS) S.D.=  1.77533563667842E-02
DEBUG_STATS_RL:               GuNm1 (DYNAMICS)  min= -3.40955168137047E-07
DEBUG_STATS_RL:               GuNm1 (DYNAMICS)  max=  1.82641400821287E-07
DEBUG_STATS_RL:               GuNm1 (DYNAMICS) mean= -2.79196714442643E-09
DEBUG_STATS_RL:               GuNm1 (DYNAMICS) S.D.=  4.07453533304283E-08
DEBUG_STATS_RL:               GvNm1 (DYNAMICS)  min= -2.14559263714300E-07
DEBUG_STATS_RL:               GvNm1 (DYNAMICS)  max=  1.94148824775152E-07
DEBUG_STATS_RL:               GvNm1 (DYNAMICS) mean= -4.04169206803957E-10
DEBUG_STATS_RL:               GvNm1 (DYNAMICS) S.D.=  4.19222729579535E-08
DEBUG_STATS_RL:               GtNm1 (DYNAMICS)  min=  0.00000000000000E+00
DEBUG_STATS_RL:               GtNm1 (DYNAMICS)  max=  0.00000000000000E+00
DEBUG_STATS_RL:               GtNm1 (DYNAMICS) mean=  0.00000000000000E+00
DEBUG_STATS_RL:               GtNm1 (DYNAMICS) S.D.=  0.00000000000000E+00
DEBUG_STATS_RL:               GsNm1 (DYNAMICS)  min=  0.00000000000000E+00
DEBUG_STATS_RL:               GsNm1 (DYNAMICS)  max=  0.00000000000000E+00
DEBUG_STATS_RL:               GsNm1 (DYNAMICS) mean=  0.00000000000000E+00
DEBUG_STATS_RL:               GsNm1 (DYNAMICS) S.D.=  0.00000000000000E+00
DEBUG_STATS_RL:    cg2d_b (SOLVE_FOR_PRESSURE)  min= -7.29975929937813E+03
DEBUG_STATS_RL:    cg2d_b (SOLVE_FOR_PRESSURE)  max=  2.19478299507037E+03
DEBUG_STATS_RL:    cg2d_b (SOLVE_FOR_PRESSURE) mean= -4.67442381098711E-13
DEBUG_STATS_RL:    cg2d_b (SOLVE_FOR_PRESSURE) S.D.=  8.94146290227680E+02
 cg2d: Sum(rhs),rhsMax =  -9.25648446781224E-15  1.17489186776827E+00
DEBUG_STATS_RL:    cg2d_x (SOLVE_FOR_PRESSURE)  min= -1.08771127617267E+00
DEBUG_STATS_RL:    cg2d_x (SOLVE_FOR_PRESSURE)  max=  3.12128519797451E+00
DEBUG_STATS_RL:    cg2d_x (SOLVE_FOR_PRESSURE) mean= -4.19588396852996E-02
DEBUG_STATS_RL:    cg2d_x (SOLVE_FOR_PRESSURE) S.D.=  6.20262122262613E-01
DEBUG_STATS_RL:          Uvel (THERMODYNAMICS)  min= -5.12375198240662E-02
DEBUG_STATS_RL:          Uvel (THERMODYNAMICS)  max=  8.84896388076344E-02
DEBUG_STATS_RL:          Uvel (THERMODYNAMICS) mean=  2.55769138538488E-03
DEBUG_STATS_RL:          Uvel (THERMODYNAMICS) S.D.=  1.29064693910432E-02
DEBUG_STATS_RL:          Vvel (THERMODYNAMICS)  min= -1.29344604199478E-01
DEBUG_STATS_RL:          Vvel (THERMODYNAMICS)  max=  4.58633296186249E-02
DEBUG_STATS_RL:          Vvel (THERMODYNAMICS) mean= -4.14107843006134E-03
DEBUG_STATS_RL:          Vvel (THERMODYNAMICS) S.D.=  1.66082836245754E-02
DEBUG_STATS_RL:          Wvel (THERMODYNAMICS)  min= -2.60848991809587E-04
DEBUG_STATS_RL:          Wvel (THERMODYNAMICS)  max=  2.85731299794375E-04
DEBUG_STATS_RL:          Wvel (THERMODYNAMICS) mean=  1.36793666178404E-07
DEBUG_STATS_RL:          Wvel (THERMODYNAMICS) S.D.=  2.70580054557625E-05
DEBUG_STATS_RL:         Theta (THERMODYNAMICS)  min= -1.95932886747261E+00
DEBUG_STATS_RL:         Theta (THERMODYNAMICS)  max=  1.32010303660583E+01
DEBUG_STATS_RL:         Theta (THERMODYNAMICS) mean=  2.41452315045422E+00
DEBUG_STATS_RL:         Theta (THERMODYNAMICS) S.D.=  2.57350774067654E+00
DEBUG_STATS_RL:          Salt (THERMODYNAMICS)  min=  2.76435505129419E+01
DEBUG_STATS_RL:          Salt (THERMODYNAMICS)  max=  3.54508660670958E+01
DEBUG_STATS_RL:          Salt (THERMODYNAMICS) mean=  3.39367749828879E+01
DEBUG_STATS_RL:          Salt (THERMODYNAMICS) S.D.=  1.15309738582046E+00
DEBUG_STATS_RL:         GtNm1 (THERMODYNAMICS)  min=  0.00000000000000E+00
DEBUG_STATS_RL:         GtNm1 (THERMODYNAMICS)  max=  0.00000000000000E+00
DEBUG_STATS_RL:         GtNm1 (THERMODYNAMICS) mean=  0.00000000000000E+00
DEBUG_STATS_RL:         GtNm1 (THERMODYNAMICS) S.D.=  0.00000000000000E+00
DEBUG_STATS_RL:         GsNm1 (THERMODYNAMICS)  min=  0.00000000000000E+00
DEBUG_STATS_RL:         GsNm1 (THERMODYNAMICS)  max=  0.00000000000000E+00
DEBUG_STATS_RL:         GsNm1 (THERMODYNAMICS) mean=  0.00000000000000E+00
DEBUG_STATS_RL:         GsNm1 (THERMODYNAMICS) S.D.=  0.00000000000000E+00
(PID.TID 0000.0001) Did not write pickup because writePickupAtEnd = FALSE
(PID.TID 0000.0001)  MDS_WRITE_FIELD: it,rec,kS,kL,kH=       1    10   1   1   1 file=m_sst_step.0000000001
(PID.TID 0000.0001) gencost # 03
(PID.TID 0000.0001)  MDS_READ_FIELD: opening global file: sigma_sst.bin
(PID.TID 0000.0001)  MDS_READ_FIELD: opening global file: m_sst_step.0000000001.data
(PID.TID 0000.0001)  MDS_READ_FIELD: opening global file: labsea_SST_fields_t10
(PID.TID 0000.0001)  MDS_WRITE_FIELD: it,rec,kS,kL,kH=       1     1   1   1   1 file=misfit_sst
(PID.TID 0000.0001)  MDS_READ_FIELD: opening global file: sigma_sst.bin
(PID.TID 0000.0001)  MDS_READ_FIELD: opening global file: m_sst_step.0000000001.data
(PID.TID 0000.0001)  MDS_READ_FIELD: opening global file: labsea_SST_fields_t10
(PID.TID 0000.0001)  MDS_WRITE_FIELD: it,rec,kS,kL,kH=       1     2   1   1   1 file=misfit_sst
(PID.TID 0000.0001)  MDS_READ_FIELD: opening global file: sigma_sst.bin
(PID.TID 0000.0001)  MDS_READ_FIELD: opening global file: m_sst_step.0000000001.data
(PID.TID 0000.0001)  MDS_READ_FIELD: opening global file: labsea_SST_fields_t10
(PID.TID 0000.0001)  MDS_WRITE_FIELD: it,rec,kS,kL,kH=       1     3   1   1   1 file=misfit_sst
(PID.TID 0000.0001)  MDS_READ_FIELD: opening global file: sigma_sst.bin
(PID.TID 0000.0001)  MDS_READ_FIELD: opening global file: m_sst_step.0000000001.data
(PID.TID 0000.0001)  MDS_READ_FIELD: opening global file: labsea_SST_fields_t10
(PID.TID 0000.0001)  MDS_WRITE_FIELD: it,rec,kS,kL,kH=       1     4   1   1   1 file=misfit_sst
(PID.TID 0000.0001)  MDS_READ_FIELD: opening global file: sigma_sst.bin
(PID.TID 0000.0001)  MDS_READ_FIELD: opening global file: m_sst_step.0000000001.data
(PID.TID 0000.0001)  MDS_READ_FIELD: opening global file: labsea_SST_fields_t10
(PID.TID 0000.0001)  MDS_WRITE_FIELD: it,rec,kS,kL,kH=       1     5   1   1   1 file=misfit_sst
(PID.TID 0000.0001)  MDS_READ_FIELD: opening global file: sigma_sst.bin
(PID.TID 0000.0001)  MDS_READ_FIELD: opening global file: m_sst_step.0000000001.data
(PID.TID 0000.0001)  MDS_READ_FIELD: opening global file: labsea_SST_fields_t10
(PID.TID 0000.0001)  MDS_WRITE_FIELD: it,rec,kS,kL,kH=       1     6   1   1   1 file=misfit_sst
(PID.TID 0000.0001)  MDS_READ_FIELD: opening global file: sigma_sst.bin
(PID.TID 0000.0001)  MDS_READ_FIELD: opening global file: m_sst_step.0000000001.data
(PID.TID 0000.0001)  MDS_READ_FIELD: opening global file: labsea_SST_fields_t10
(PID.TID 0000.0001)  MDS_WRITE_FIELD: it,rec,kS,kL,kH=       1     7   1   1   1 file=misfit_sst
(PID.TID 0000.0001)  MDS_READ_FIELD: opening global file: sigma_sst.bin
(PID.TID 0000.0001)  MDS_READ_FIELD: opening global file: m_sst_step.0000000001.data
(PID.TID 0000.0001)  MDS_READ_FIELD: opening global file: labsea_SST_fields_t10
(PID.TID 0000.0001)  MDS_WRITE_FIELD: it,rec,kS,kL,kH=       1     8   1   1   1 file=misfit_sst
(PID.TID 0000.0001)  MDS_READ_FIELD: opening global file: sigma_sst.bin
(PID.TID 0000.0001)  MDS_READ_FIELD: opening global file: m_sst_step.0000000001.data
(PID.TID 0000.0001)  MDS_READ_FIELD: opening global file: labsea_SST_fields_t10
(PID.TID 0000.0001)  MDS_WRITE_FIELD: it,rec,kS,kL,kH=       1     9   1   1   1 file=misfit_sst
(PID.TID 0000.0001)  MDS_READ_FIELD: opening global file: sigma_sst.bin
(PID.TID 0000.0001)  MDS_READ_FIELD: opening global file: m_sst_step.0000000001.data
(PID.TID 0000.0001)  MDS_READ_FIELD: opening global file: labsea_SST_fields_t10
(PID.TID 0000.0001)  MDS_WRITE_FIELD: it,rec,kS,kL,kH=       1    10   1   1   1 file=misfit_sst
(PID.TID 0000.0001)  MDS_READ_FIELD: opening global file: xx_atemp.0000000001.data
(PID.TID 0000.0001)  MDS_READ_FIELD: opening global file: xx_atemp.0000000001.data
(PID.TID 0000.0001)  MDS_READ_FIELD: opening global file: xx_atemp.0000000001.data
(PID.TID 0000.0001)  MDS_READ_FIELD: opening global file: xx_atemp.0000000001.data
(PID.TID 0000.0001)  MDS_READ_FIELD: opening global file: xx_atemp.0000000001.data
(PID.TID 0000.0001)  MDS_READ_FIELD: opening global file: xx_atemp.0000000001.data
(PID.TID 0000.0001)  MDS_READ_FIELD: opening global file: xx_atemp.0000000001.data
(PID.TID 0000.0001)  MDS_READ_FIELD: opening global file: xx_atemp.0000000001.data
(PID.TID 0000.0001)  MDS_READ_FIELD: opening global file: xx_atemp.0000000001.data
(PID.TID 0000.0001)  MDS_READ_FIELD: opening global file: xx_atemp.0000000001.data
(PID.TID 0000.0001)  MDS_READ_FIELD: opening global file: xx_atemp.0000000001.data
 --> f_ice     = 0.000000000000000D+00
 --> f_smrarea = 0.000000000000000D+00
 --> f_smrarea = 0.000000000000000D+00
 --> f_smrarea = 0.000000000000000D+00
(PID.TID 0000.0001)  --> f_gencost = 0.527453128215444D+04 3
(PID.TID 0000.0001)  --> f_gentim2d = 0.243374980010000D+03 1
(PID.TID 0000.0001)  --> fc               = 0.527453128215444D+04
(PID.TID 0000.0001)  cost_Final: final cost function =  0.527453128215444D+04
(PID.TID 0000.0001) 
(PID.TID 0000.0001)              cost function evaluation finished.
(PID.TID 0000.0001) 
(PID.TID 0000.0001)   early fc =  0.000000000000000D+00
(PID.TID 0000.0001)   local fc =  0.527453128215444D+04
(PID.TID 0000.0001)  global fc =  0.527453128215444D+04
(PID.TID 0000.0001) grdchk perturb(-)fc: fcpertminus =  5.27453128215444E+03
(PID.TID 0000.0001)  MDS_READ_FIELD: opening global file: xx_atemp.0000000001.data
(PID.TID 0000.0001)  MDS_WRITE_FIELD: it,rec,kS,kL,kH=       1     1   1   1   1 file=xx_atemp.0000000001
grad-res -------------------------------
 grad-res     0    1    6    8    1    1    1    1   5.27453128215E+03  5.27453128215E+03  5.27453128215E+03
 grad-res     0    1    1   75    0    1    1    1  -9.89612074439E+02  1.13686837722E-07  1.00000000011E+00
(PID.TID 0000.0001)  ADM  ref_cost_function      =  5.27453128215446E+03
(PID.TID 0000.0001)  ADM  adjoint_gradient       = -9.89612074439242E+02
(PID.TID 0000.0001)  ADM  finite-diff_grad       =  1.13686837721616E-07
(PID.TID 0000.0001) ====== End of gradient-check number   1 (ierr=  0) =======
(PID.TID 0000.0001) ====== Starts gradient-check number   2 (=ichknum) =======
 ph-test icomp, ncvarcomp, ichknum           76        1650           2
 ph-grd _loc: bi, bj, icomptest, ichknum            1           1          75           2
 ph-grd -->hit<--            7           8           1           1
(PID.TID 0000.0001) grdchk pos: i,j,k=    7    8    1 ; bi,bj=   1   1 ; iobc=  1 ; rec=   1
(PID.TID 0000.0001)  MDS_READ_FIELD: opening global file: adxx_atemp.0000000001.data
(PID.TID 0000.0001)  MDS_READ_FIELD: opening global file: xx_atemp.0000000001.data
(PID.TID 0000.0001)  MDS_WRITE_FIELD: it,rec,kS,kL,kH=       1     1   1   1   1 file=xx_atemp.0000000001
(PID.TID 0000.0001)  MDS_READ_FIELD: opening global file: LevCli_temp.labsea1979
(PID.TID 0000.0001)  MDS_READ_FIELD: opening global file: LevCli_salt.labsea1979
(PID.TID 0000.0001) Start initial hydrostatic pressure computation
(PID.TID 0000.0001) Pressure is predetermined for buoyancyRelation OCEANIC
(PID.TID 0000.0001) 
(PID.TID 0000.0001) CTRL_INIT_REC: Getting record indices for xx_atemp
(PID.TID 0000.0001) CTRL_INIT_REC: Record indices for xx_atemp:
(PID.TID 0000.0001) CTRL_INIT_REC: startrec =          1, endrec =         11
(PID.TID 0000.0001)  MDS_READ_FIELD: opening global file: xx_atemp.0000000001.data
(PID.TID 0000.0001)  MDS_WRITE_FIELD: it,rec,kS,kL,kH=       1     1   1   1   1 file=xx_atemp.effective.0000000001
(PID.TID 0000.0001)  MDS_READ_FIELD: opening global file: xx_atemp.0000000001.data
(PID.TID 0000.0001)  MDS_WRITE_FIELD: it,rec,kS,kL,kH=       1     2   1   1   1 file=xx_atemp.effective.0000000001
(PID.TID 0000.0001)  MDS_READ_FIELD: opening global file: xx_atemp.0000000001.data
(PID.TID 0000.0001)  MDS_WRITE_FIELD: it,rec,kS,kL,kH=       1     3   1   1   1 file=xx_atemp.effective.0000000001
(PID.TID 0000.0001)  MDS_READ_FIELD: opening global file: xx_atemp.0000000001.data
(PID.TID 0000.0001)  MDS_WRITE_FIELD: it,rec,kS,kL,kH=       1     4   1   1   1 file=xx_atemp.effective.0000000001
(PID.TID 0000.0001)  MDS_READ_FIELD: opening global file: xx_atemp.0000000001.data
(PID.TID 0000.0001)  MDS_WRITE_FIELD: it,rec,kS,kL,kH=       1     5   1   1   1 file=xx_atemp.effective.0000000001
(PID.TID 0000.0001)  MDS_READ_FIELD: opening global file: xx_atemp.0000000001.data
(PID.TID 0000.0001)  MDS_WRITE_FIELD: it,rec,kS,kL,kH=       1     6   1   1   1 file=xx_atemp.effective.0000000001
(PID.TID 0000.0001)  MDS_READ_FIELD: opening global file: xx_atemp.0000000001.data
(PID.TID 0000.0001)  MDS_WRITE_FIELD: it,rec,kS,kL,kH=       1     7   1   1   1 file=xx_atemp.effective.0000000001
(PID.TID 0000.0001)  MDS_READ_FIELD: opening global file: xx_atemp.0000000001.data
(PID.TID 0000.0001)  MDS_WRITE_FIELD: it,rec,kS,kL,kH=       1     8   1   1   1 file=xx_atemp.effective.0000000001
(PID.TID 0000.0001)  MDS_READ_FIELD: opening global file: xx_atemp.0000000001.data
(PID.TID 0000.0001)  MDS_WRITE_FIELD: it,rec,kS,kL,kH=       1     9   1   1   1 file=xx_atemp.effective.0000000001
(PID.TID 0000.0001)  MDS_READ_FIELD: opening global file: xx_atemp.0000000001.data
(PID.TID 0000.0001)  MDS_WRITE_FIELD: it,rec,kS,kL,kH=       1    10   1   1   1 file=xx_atemp.effective.0000000001
(PID.TID 0000.0001)  MDS_READ_FIELD: opening global file: xx_atemp.0000000001.data
(PID.TID 0000.0001)  MDS_WRITE_FIELD: it,rec,kS,kL,kH=       1    11   1   1   1 file=xx_atemp.effective.0000000001
(PID.TID 0000.0001)  MDS_READ_FIELD: opening global file: xx_atemp.effective.0000000001.data
(PID.TID 0000.0001)  MDS_READ_FIELD: opening global file: ones_64b.bin
(PID.TID 0000.0001)  MDS_WRITE_FIELD: it,rec,kS,kL,kH=       1     1   1   1   1 file=xx_atemp.effective.0000000001
(PID.TID 0000.0001)  MDS_READ_FIELD: opening global file: xx_atemp.effective.0000000001.data
(PID.TID 0000.0001)  MDS_READ_FIELD: opening global file: ones_64b.bin
(PID.TID 0000.0001)  MDS_WRITE_FIELD: it,rec,kS,kL,kH=       1     2   1   1   1 file=xx_atemp.effective.0000000001
(PID.TID 0000.0001)  MDS_READ_FIELD: opening global file: xx_atemp.effective.0000000001.data
(PID.TID 0000.0001)  MDS_READ_FIELD: opening global file: ones_64b.bin
(PID.TID 0000.0001)  MDS_WRITE_FIELD: it,rec,kS,kL,kH=       1     3   1   1   1 file=xx_atemp.effective.0000000001
(PID.TID 0000.0001)  MDS_READ_FIELD: opening global file: xx_atemp.effective.0000000001.data
(PID.TID 0000.0001)  MDS_READ_FIELD: opening global file: ones_64b.bin
(PID.TID 0000.0001)  MDS_WRITE_FIELD: it,rec,kS,kL,kH=       1     4   1   1   1 file=xx_atemp.effective.0000000001
(PID.TID 0000.0001)  MDS_READ_FIELD: opening global file: xx_atemp.effective.0000000001.data
(PID.TID 0000.0001)  MDS_READ_FIELD: opening global file: ones_64b.bin
(PID.TID 0000.0001)  MDS_WRITE_FIELD: it,rec,kS,kL,kH=       1     5   1   1   1 file=xx_atemp.effective.0000000001
(PID.TID 0000.0001)  MDS_READ_FIELD: opening global file: xx_atemp.effective.0000000001.data
(PID.TID 0000.0001)  MDS_READ_FIELD: opening global file: ones_64b.bin
(PID.TID 0000.0001)  MDS_WRITE_FIELD: it,rec,kS,kL,kH=       1     6   1   1   1 file=xx_atemp.effective.0000000001
(PID.TID 0000.0001)  MDS_READ_FIELD: opening global file: xx_atemp.effective.0000000001.data
(PID.TID 0000.0001)  MDS_READ_FIELD: opening global file: ones_64b.bin
(PID.TID 0000.0001)  MDS_WRITE_FIELD: it,rec,kS,kL,kH=       1     7   1   1   1 file=xx_atemp.effective.0000000001
(PID.TID 0000.0001)  MDS_READ_FIELD: opening global file: xx_atemp.effective.0000000001.data
(PID.TID 0000.0001)  MDS_READ_FIELD: opening global file: ones_64b.bin
(PID.TID 0000.0001)  MDS_WRITE_FIELD: it,rec,kS,kL,kH=       1     8   1   1   1 file=xx_atemp.effective.0000000001
(PID.TID 0000.0001)  MDS_READ_FIELD: opening global file: xx_atemp.effective.0000000001.data
(PID.TID 0000.0001)  MDS_READ_FIELD: opening global file: ones_64b.bin
(PID.TID 0000.0001)  MDS_WRITE_FIELD: it,rec,kS,kL,kH=       1     9   1   1   1 file=xx_atemp.effective.0000000001
(PID.TID 0000.0001)  MDS_READ_FIELD: opening global file: xx_atemp.effective.0000000001.data
(PID.TID 0000.0001)  MDS_READ_FIELD: opening global file: ones_64b.bin
(PID.TID 0000.0001)  MDS_WRITE_FIELD: it,rec,kS,kL,kH=       1    10   1   1   1 file=xx_atemp.effective.0000000001
(PID.TID 0000.0001)  MDS_READ_FIELD: opening global file: xx_atemp.effective.0000000001.data
(PID.TID 0000.0001)  MDS_READ_FIELD: opening global file: ones_64b.bin
(PID.TID 0000.0001)  MDS_WRITE_FIELD: it,rec,kS,kL,kH=       1    11   1   1   1 file=xx_atemp.effective.0000000001
(PID.TID 0000.0001) // =======================================================
(PID.TID 0000.0001) // Model current state
(PID.TID 0000.0001) // =======================================================
(PID.TID 0000.0001) 
(PID.TID 0000.0001)  MDS_WRITE_FIELD: it,rec,kS,kL,kH=       1     1   1   1   1 file=m_sst_step.0000000001
(PID.TID 0000.0001)  MDS_READ_FIELD: opening global file: xx_atemp.effective.0000000001.data
(PID.TID 0000.0001)  MDS_READ_FIELD: opening global file: xx_atemp.effective.0000000001.data
(PID.TID 0000.0001) EXF_SET_FLD: processing field "climsss",  file: SSS_monthly.labsea1979
(PID.TID 0000.0001) EXF_SET_FLD:   myIter, count0, count1:         0      1      2
(PID.TID 0000.0001) EXF_SET_FLD:   first, changed, fac:   T   F    0.50000000000000000
(PID.TID 0000.0001) EXF_SET_FLD: field "climsss", it=         0, loading rec=     1
(PID.TID 0000.0001) EXF_SET_FLD:   from file: "SSS_monthly.labsea1979"
(PID.TID 0000.0001)  MDS_READ_FIELD: opening global file: SSS_monthly.labsea1979
(PID.TID 0000.0001) EXF_SET_FLD: field "climsss", it=         0, loading rec=     2
(PID.TID 0000.0001) EXF_SET_FLD:   from file: "SSS_monthly.labsea1979"
(PID.TID 0000.0001)  MDS_READ_FIELD: opening global file: SSS_monthly.labsea1979
(PID.TID 0000.0001) EXF_SET_FLD: processing field "uwind",  file: u10m.labsea1979
(PID.TID 0000.0001) EXF_SET_FLD:   myIter, count0, count1:         0      1      2
(PID.TID 0000.0001) EXF_SET_FLD:   first, changed, fac:   T   F    0.50000000000000000
(PID.TID 0000.0001) EXF_SET_FLD: field "uwind", it=         0, loading rec=     1
(PID.TID 0000.0001) EXF_SET_FLD:   from file: "u10m.labsea1979"
(PID.TID 0000.0001)  MDS_READ_FIELD: opening global file: u10m.labsea1979
(PID.TID 0000.0001) EXF_SET_FLD: field "uwind", it=         0, loading rec=     2
(PID.TID 0000.0001) EXF_SET_FLD:   from file: "u10m.labsea1979"
(PID.TID 0000.0001)  MDS_READ_FIELD: opening global file: u10m.labsea1979
(PID.TID 0000.0001) EXF_SET_FLD: processing field "vwind",  file: v10m.labsea1979
(PID.TID 0000.0001) EXF_SET_FLD:   myIter, count0, count1:         0      1      2
(PID.TID 0000.0001) EXF_SET_FLD:   first, changed, fac:   T   F    0.50000000000000000
(PID.TID 0000.0001) EXF_SET_FLD: field "vwind", it=         0, loading rec=     1
(PID.TID 0000.0001) EXF_SET_FLD:   from file: "v10m.labsea1979"
(PID.TID 0000.0001)  MDS_READ_FIELD: opening global file: v10m.labsea1979
(PID.TID 0000.0001) EXF_SET_FLD: field "vwind", it=         0, loading rec=     2
(PID.TID 0000.0001) EXF_SET_FLD:   from file: "v10m.labsea1979"
(PID.TID 0000.0001)  MDS_READ_FIELD: opening global file: v10m.labsea1979
(PID.TID 0000.0001) EXF_SET_FLD: processing field "atemp",  file: tair.labsea1979
(PID.TID 0000.0001) EXF_SET_FLD:   myIter, count0, count1:         0      1      2
(PID.TID 0000.0001) EXF_SET_FLD:   first, changed, fac:   T   F    0.50000000000000000
(PID.TID 0000.0001) EXF_SET_FLD: field "atemp", it=         0, loading rec=     1
(PID.TID 0000.0001) EXF_SET_FLD:   from file: "tair.labsea1979"
(PID.TID 0000.0001)  MDS_READ_FIELD: opening global file: tair.labsea1979
(PID.TID 0000.0001) EXF_SET_FLD: field "atemp", it=         0, loading rec=     2
(PID.TID 0000.0001) EXF_SET_FLD:   from file: "tair.labsea1979"
(PID.TID 0000.0001)  MDS_READ_FIELD: opening global file: tair.labsea1979
(PID.TID 0000.0001) EXF_SET_FLD: processing field "aqh",  file: qa.labsea1979
(PID.TID 0000.0001) EXF_SET_FLD:   myIter, count0, count1:         0      1      2
(PID.TID 0000.0001) EXF_SET_FLD:   first, changed, fac:   T   F    0.50000000000000000
(PID.TID 0000.0001) EXF_SET_FLD: field "aqh", it=         0, loading rec=     1
(PID.TID 0000.0001) EXF_SET_FLD:   from file: "qa.labsea1979"
(PID.TID 0000.0001)  MDS_READ_FIELD: opening global file: qa.labsea1979
(PID.TID 0000.0001) EXF_SET_FLD: field "aqh", it=         0, loading rec=     2
(PID.TID 0000.0001) EXF_SET_FLD:   from file: "qa.labsea1979"
(PID.TID 0000.0001)  MDS_READ_FIELD: opening global file: qa.labsea1979
(PID.TID 0000.0001) EXF_SET_FLD: processing field "precip",  file: prate.labsea1979
(PID.TID 0000.0001) EXF_SET_FLD:   myIter, count0, count1:         0      1      2
(PID.TID 0000.0001) EXF_SET_FLD:   first, changed, fac:   T   F    0.50000000000000000
(PID.TID 0000.0001) EXF_SET_FLD: field "precip", it=         0, loading rec=     1
(PID.TID 0000.0001) EXF_SET_FLD:   from file: "prate.labsea1979"
(PID.TID 0000.0001)  MDS_READ_FIELD: opening global file: prate.labsea1979
(PID.TID 0000.0001) EXF_SET_FLD: field "precip", it=         0, loading rec=     2
(PID.TID 0000.0001) EXF_SET_FLD:   from file: "prate.labsea1979"
(PID.TID 0000.0001)  MDS_READ_FIELD: opening global file: prate.labsea1979
(PID.TID 0000.0001) EXF_SET_FLD: processing field "swdown",  file: fsh.labsea1979
(PID.TID 0000.0001) EXF_SET_FLD:   myIter, count0, count1:         0      1      2
(PID.TID 0000.0001) EXF_SET_FLD:   first, changed, fac:   T   F    0.50000000000000000
(PID.TID 0000.0001) EXF_SET_FLD: field "swdown", it=         0, loading rec=     1
(PID.TID 0000.0001) EXF_SET_FLD:   from file: "fsh.labsea1979"
(PID.TID 0000.0001)  MDS_READ_FIELD: opening global file: fsh.labsea1979
(PID.TID 0000.0001) EXF_SET_FLD: field "swdown", it=         0, loading rec=     2
(PID.TID 0000.0001) EXF_SET_FLD:   from file: "fsh.labsea1979"
(PID.TID 0000.0001)  MDS_READ_FIELD: opening global file: fsh.labsea1979
(PID.TID 0000.0001) EXF_SET_FLD: processing field "lwdown",  file: flo.labsea1979
(PID.TID 0000.0001) EXF_SET_FLD:   myIter, count0, count1:         0      1      2
(PID.TID 0000.0001) EXF_SET_FLD:   first, changed, fac:   T   F    0.50000000000000000
(PID.TID 0000.0001) EXF_SET_FLD: field "lwdown", it=         0, loading rec=     1
(PID.TID 0000.0001) EXF_SET_FLD:   from file: "flo.labsea1979"
(PID.TID 0000.0001)  MDS_READ_FIELD: opening global file: flo.labsea1979
(PID.TID 0000.0001) EXF_SET_FLD: field "lwdown", it=         0, loading rec=     2
(PID.TID 0000.0001) EXF_SET_FLD:   from file: "flo.labsea1979"
(PID.TID 0000.0001)  MDS_READ_FIELD: opening global file: flo.labsea1979
DEBUG_STATS_RL: Uice pre  iter (SEAICE_LSR  1)  min=  0.00000000000000E+00
DEBUG_STATS_RL: Uice pre  iter (SEAICE_LSR  1)  max=  0.00000000000000E+00
DEBUG_STATS_RL: Uice pre  iter (SEAICE_LSR  1) mean=  0.00000000000000E+00
DEBUG_STATS_RL: Uice pre  iter (SEAICE_LSR  1) S.D.=  0.00000000000000E+00
DEBUG_STATS_RL: Vice pre  iter (SEAICE_LSR  1)  min=  0.00000000000000E+00
DEBUG_STATS_RL: Vice pre  iter (SEAICE_LSR  1)  max=  0.00000000000000E+00
DEBUG_STATS_RL: Vice pre  iter (SEAICE_LSR  1) mean=  0.00000000000000E+00
DEBUG_STATS_RL: Vice pre  iter (SEAICE_LSR  1) S.D.=  0.00000000000000E+00
DEBUG_STATS_RL: Uice pre  iter (SEAICE_LSR  2)  min= -4.74478293331770E-04
DEBUG_STATS_RL: Uice pre  iter (SEAICE_LSR  2)  max=  5.19863184318560E-03
DEBUG_STATS_RL: Uice pre  iter (SEAICE_LSR  2) mean=  1.15969103043184E-03
DEBUG_STATS_RL: Uice pre  iter (SEAICE_LSR  2) S.D.=  1.37050304765703E-03
DEBUG_STATS_RL: Vice pre  iter (SEAICE_LSR  2)  min= -2.82028703630720E-03
DEBUG_STATS_RL: Vice pre  iter (SEAICE_LSR  2)  max=  8.55909305417855E-04
DEBUG_STATS_RL: Vice pre  iter (SEAICE_LSR  2) mean= -7.32602707228794E-04
DEBUG_STATS_RL: Vice pre  iter (SEAICE_LSR  2) S.D.=  9.65742386214621E-04
DEBUG_STATS_RL:                EtaN (DYNAMICS)  min=  0.00000000000000E+00
DEBUG_STATS_RL:                EtaN (DYNAMICS)  max=  0.00000000000000E+00
DEBUG_STATS_RL:                EtaN (DYNAMICS) mean=  0.00000000000000E+00
DEBUG_STATS_RL:                EtaN (DYNAMICS) S.D.=  0.00000000000000E+00
DEBUG_STATS_RL:                Uvel (DYNAMICS)  min=  0.00000000000000E+00
DEBUG_STATS_RL:                Uvel (DYNAMICS)  max=  0.00000000000000E+00
DEBUG_STATS_RL:                Uvel (DYNAMICS) mean=  0.00000000000000E+00
DEBUG_STATS_RL:                Uvel (DYNAMICS) S.D.=  0.00000000000000E+00
DEBUG_STATS_RL:                Vvel (DYNAMICS)  min=  0.00000000000000E+00
DEBUG_STATS_RL:                Vvel (DYNAMICS)  max=  0.00000000000000E+00
DEBUG_STATS_RL:                Vvel (DYNAMICS) mean=  0.00000000000000E+00
DEBUG_STATS_RL:                Vvel (DYNAMICS) S.D.=  0.00000000000000E+00
DEBUG_STATS_RL:                Wvel (DYNAMICS)  min=  0.00000000000000E+00
DEBUG_STATS_RL:                Wvel (DYNAMICS)  max=  0.00000000000000E+00
DEBUG_STATS_RL:                Wvel (DYNAMICS) mean=  0.00000000000000E+00
DEBUG_STATS_RL:                Wvel (DYNAMICS) S.D.=  0.00000000000000E+00
DEBUG_STATS_RL:               Theta (DYNAMICS)  min= -1.41036188602448E+00
DEBUG_STATS_RL:               Theta (DYNAMICS)  max=  1.33330764770508E+01
DEBUG_STATS_RL:               Theta (DYNAMICS) mean=  2.90475522269124E+00
DEBUG_STATS_RL:               Theta (DYNAMICS) S.D.=  2.44037465259698E+00
DEBUG_STATS_RL:                Salt (DYNAMICS)  min=  3.01286983489990E+01
DEBUG_STATS_RL:                Salt (DYNAMICS)  max=  3.54506225585938E+01
DEBUG_STATS_RL:                Salt (DYNAMICS) mean=  3.40845304745500E+01
DEBUG_STATS_RL:                Salt (DYNAMICS) S.D.=  9.00924836964808E-01
DEBUG_STATS_RL:                  Gu (DYNAMICS)  min= -2.00599447531986E-02
DEBUG_STATS_RL:                  Gu (DYNAMICS)  max=  1.04076999541495E-02
DEBUG_STATS_RL:                  Gu (DYNAMICS) mean= -2.58939542765896E-03
DEBUG_STATS_RL:                  Gu (DYNAMICS) S.D.=  4.84472279217175E-03
DEBUG_STATS_RL:                  Gv (DYNAMICS)  min= -2.97181268783620E-02
DEBUG_STATS_RL:                  Gv (DYNAMICS)  max=  1.05795727308992E-02
DEBUG_STATS_RL:                  Gv (DYNAMICS) mean= -1.51075895161939E-03
DEBUG_STATS_RL:                  Gv (DYNAMICS) S.D.=  5.23505354600419E-03
DEBUG_STATS_RL:               GuNm1 (DYNAMICS)  min=  0.00000000000000E+00
DEBUG_STATS_RL:               GuNm1 (DYNAMICS)  max=  0.00000000000000E+00
DEBUG_STATS_RL:               GuNm1 (DYNAMICS) mean=  0.00000000000000E+00
DEBUG_STATS_RL:               GuNm1 (DYNAMICS) S.D.=  0.00000000000000E+00
DEBUG_STATS_RL:               GvNm1 (DYNAMICS)  min=  0.00000000000000E+00
DEBUG_STATS_RL:               GvNm1 (DYNAMICS)  max=  0.00000000000000E+00
DEBUG_STATS_RL:               GvNm1 (DYNAMICS) mean=  0.00000000000000E+00
DEBUG_STATS_RL:               GvNm1 (DYNAMICS) S.D.=  0.00000000000000E+00
DEBUG_STATS_RL:               GtNm1 (DYNAMICS)  min=  0.00000000000000E+00
DEBUG_STATS_RL:               GtNm1 (DYNAMICS)  max=  0.00000000000000E+00
DEBUG_STATS_RL:               GtNm1 (DYNAMICS) mean=  0.00000000000000E+00
DEBUG_STATS_RL:               GtNm1 (DYNAMICS) S.D.=  0.00000000000000E+00
DEBUG_STATS_RL:               GsNm1 (DYNAMICS)  min=  0.00000000000000E+00
DEBUG_STATS_RL:               GsNm1 (DYNAMICS)  max=  0.00000000000000E+00
DEBUG_STATS_RL:               GsNm1 (DYNAMICS) mean=  0.00000000000000E+00
DEBUG_STATS_RL:               GsNm1 (DYNAMICS) S.D.=  0.00000000000000E+00
(PID.TID 0000.0001) SOLVE_FOR_PRESSURE: putPmEinXvector =    F
DEBUG_STATS_RL:    cg2d_b (SOLVE_FOR_PRESSURE)  min= -6.15797366908278E+03
DEBUG_STATS_RL:    cg2d_b (SOLVE_FOR_PRESSURE)  max=  2.03762696322118E+03
DEBUG_STATS_RL:    cg2d_b (SOLVE_FOR_PRESSURE) mean=  2.40637139844087E-14
DEBUG_STATS_RL:    cg2d_b (SOLVE_FOR_PRESSURE) S.D.=  8.03730450548215E+02
 cg2d: Sum(rhs),rhsMax =   7.91033905045424E-16  9.91122157459750E-01
DEBUG_STATS_RL:    cg2d_x (SOLVE_FOR_PRESSURE)  min= -7.77200124675132E-01
DEBUG_STATS_RL:    cg2d_x (SOLVE_FOR_PRESSURE)  max=  2.02552651121663E+00
DEBUG_STATS_RL:    cg2d_x (SOLVE_FOR_PRESSURE) mean= -8.58037095103906E-03
DEBUG_STATS_RL:    cg2d_x (SOLVE_FOR_PRESSURE) S.D.=  4.14863218307968E-01
DEBUG_STATS_RL:          Uvel (THERMODYNAMICS)  min= -1.97613285723242E-02
DEBUG_STATS_RL:          Uvel (THERMODYNAMICS)  max=  1.31897193240012E-02
DEBUG_STATS_RL:          Uvel (THERMODYNAMICS) mean= -7.76915115649382E-04
DEBUG_STATS_RL:          Uvel (THERMODYNAMICS) S.D.=  3.97168834923499E-03
DEBUG_STATS_RL:          Vvel (THERMODYNAMICS)  min= -1.13773235335529E-02
DEBUG_STATS_RL:          Vvel (THERMODYNAMICS)  max=  2.04284639774261E-02
DEBUG_STATS_RL:          Vvel (THERMODYNAMICS) mean=  7.24190880687442E-04
DEBUG_STATS_RL:          Vvel (THERMODYNAMICS) S.D.=  4.28907995073846E-03
DEBUG_STATS_RL:          Wvel (THERMODYNAMICS)  min= -4.27131465138430E-05
DEBUG_STATS_RL:          Wvel (THERMODYNAMICS)  max=  1.16530364658749E-04
DEBUG_STATS_RL:          Wvel (THERMODYNAMICS) mean= -4.07763417598552E-07
DEBUG_STATS_RL:          Wvel (THERMODYNAMICS) S.D.=  1.80149904412009E-05
DEBUG_STATS_RL:         Theta (THERMODYNAMICS)  min= -1.41019615972461E+00
DEBUG_STATS_RL:         Theta (THERMODYNAMICS)  max=  1.32440592110212E+01
DEBUG_STATS_RL:         Theta (THERMODYNAMICS) mean=  2.49735783552472E+00
DEBUG_STATS_RL:         Theta (THERMODYNAMICS) S.D.=  2.45807980529386E+00
DEBUG_STATS_RL:          Salt (THERMODYNAMICS)  min=  2.76560994014067E+01
DEBUG_STATS_RL:          Salt (THERMODYNAMICS)  max=  3.54507778736995E+01
DEBUG_STATS_RL:          Salt (THERMODYNAMICS) mean=  3.39623217189226E+01
DEBUG_STATS_RL:          Salt (THERMODYNAMICS) S.D.=  1.10108958710671E+00
DEBUG_STATS_RL:         GtNm1 (THERMODYNAMICS)  min=  0.00000000000000E+00
DEBUG_STATS_RL:         GtNm1 (THERMODYNAMICS)  max=  0.00000000000000E+00
DEBUG_STATS_RL:         GtNm1 (THERMODYNAMICS) mean=  0.00000000000000E+00
DEBUG_STATS_RL:         GtNm1 (THERMODYNAMICS) S.D.=  0.00000000000000E+00
DEBUG_STATS_RL:         GsNm1 (THERMODYNAMICS)  min=  0.00000000000000E+00
DEBUG_STATS_RL:         GsNm1 (THERMODYNAMICS)  max=  0.00000000000000E+00
DEBUG_STATS_RL:         GsNm1 (THERMODYNAMICS) mean=  0.00000000000000E+00
DEBUG_STATS_RL:         GsNm1 (THERMODYNAMICS) S.D.=  0.00000000000000E+00
(PID.TID 0000.0001)  MDS_WRITE_FIELD: it,rec,kS,kL,kH=       1     2   1   1   1 file=m_sst_step.0000000001
(PID.TID 0000.0001)  MDS_READ_FIELD: opening global file: xx_atemp.effective.0000000001.data
(PID.TID 0000.0001) EXF_SET_FLD: processing field "climsss",  file: SSS_monthly.labsea1979
(PID.TID 0000.0001) EXF_SET_FLD:   myIter, count0, count1:         1      1      2
(PID.TID 0000.0001) EXF_SET_FLD:   first, changed, fac:   F   F    0.49863387978142082
(PID.TID 0000.0001) EXF_SET_FLD: processing field "uwind",  file: u10m.labsea1979
(PID.TID 0000.0001) EXF_SET_FLD:   myIter, count0, count1:         1      1      2
(PID.TID 0000.0001) EXF_SET_FLD:   first, changed, fac:   F   F    0.49863387978142082
(PID.TID 0000.0001) EXF_SET_FLD: processing field "vwind",  file: v10m.labsea1979
(PID.TID 0000.0001) EXF_SET_FLD:   myIter, count0, count1:         1      1      2
(PID.TID 0000.0001) EXF_SET_FLD:   first, changed, fac:   F   F    0.49863387978142082
(PID.TID 0000.0001) EXF_SET_FLD: processing field "atemp",  file: tair.labsea1979
(PID.TID 0000.0001) EXF_SET_FLD:   myIter, count0, count1:         1      1      2
(PID.TID 0000.0001) EXF_SET_FLD:   first, changed, fac:   F   F    0.49863387978142082
(PID.TID 0000.0001) EXF_SET_FLD: processing field "aqh",  file: qa.labsea1979
(PID.TID 0000.0001) EXF_SET_FLD:   myIter, count0, count1:         1      1      2
(PID.TID 0000.0001) EXF_SET_FLD:   first, changed, fac:   F   F    0.49863387978142082
(PID.TID 0000.0001) EXF_SET_FLD: processing field "precip",  file: prate.labsea1979
(PID.TID 0000.0001) EXF_SET_FLD:   myIter, count0, count1:         1      1      2
(PID.TID 0000.0001) EXF_SET_FLD:   first, changed, fac:   F   F    0.49863387978142082
(PID.TID 0000.0001) EXF_SET_FLD: processing field "swdown",  file: fsh.labsea1979
(PID.TID 0000.0001) EXF_SET_FLD:   myIter, count0, count1:         1      1      2
(PID.TID 0000.0001) EXF_SET_FLD:   first, changed, fac:   F   F    0.49863387978142082
(PID.TID 0000.0001) EXF_SET_FLD: processing field "lwdown",  file: flo.labsea1979
(PID.TID 0000.0001) EXF_SET_FLD:   myIter, count0, count1:         1      1      2
(PID.TID 0000.0001) EXF_SET_FLD:   first, changed, fac:   F   F    0.49863387978142082
DEBUG_STATS_RL: Uice pre  iter (SEAICE_LSR  1)  min= -1.15942749827435E-03
DEBUG_STATS_RL: Uice pre  iter (SEAICE_LSR  1)  max=  1.20418167656252E-02
DEBUG_STATS_RL: Uice pre  iter (SEAICE_LSR  1) mean=  2.64506216410235E-03
DEBUG_STATS_RL: Uice pre  iter (SEAICE_LSR  1) S.D.=  3.13774756817759E-03
DEBUG_STATS_RL: Vice pre  iter (SEAICE_LSR  1)  min= -5.99336397479914E-03
DEBUG_STATS_RL: Vice pre  iter (SEAICE_LSR  1)  max=  4.08760906980194E-03
DEBUG_STATS_RL: Vice pre  iter (SEAICE_LSR  1) mean= -1.18494610218030E-03
DEBUG_STATS_RL: Vice pre  iter (SEAICE_LSR  1) S.D.=  2.51572614879252E-03
DEBUG_STATS_RL: Uice pre  iter (SEAICE_LSR  2)  min= -1.66461661595648E-03
DEBUG_STATS_RL: Uice pre  iter (SEAICE_LSR  2)  max=  2.05817158221004E-01
DEBUG_STATS_RL: Uice pre  iter (SEAICE_LSR  2) mean=  2.18937658776783E-02
DEBUG_STATS_RL: Uice pre  iter (SEAICE_LSR  2) S.D.=  4.15140060700845E-02
DEBUG_STATS_RL: Vice pre  iter (SEAICE_LSR  2)  min= -1.15170217244308E-02
DEBUG_STATS_RL: Vice pre  iter (SEAICE_LSR  2)  max=  6.02623623339015E-02
DEBUG_STATS_RL: Vice pre  iter (SEAICE_LSR  2) mean= -5.88552864146683E-04
DEBUG_STATS_RL: Vice pre  iter (SEAICE_LSR  2) S.D.=  1.21471679479680E-02
DEBUG_STATS_RL:                EtaN (DYNAMICS)  min= -7.91800933896177E-02
DEBUG_STATS_RL:                EtaN (DYNAMICS)  max=  2.06357890624784E-01
DEBUG_STATS_RL:                EtaN (DYNAMICS) mean= -8.74156541733471E-04
DEBUG_STATS_RL:                EtaN (DYNAMICS) S.D.=  4.22657013639480E-02
DEBUG_STATS_RL:                Uvel (DYNAMICS)  min= -1.97613285723242E-02
DEBUG_STATS_RL:                Uvel (DYNAMICS)  max=  1.31897193240012E-02
DEBUG_STATS_RL:                Uvel (DYNAMICS) mean= -7.76915115649382E-04
DEBUG_STATS_RL:                Uvel (DYNAMICS) S.D.=  3.97168834923499E-03
DEBUG_STATS_RL:                Vvel (DYNAMICS)  min= -1.13773235335529E-02
DEBUG_STATS_RL:                Vvel (DYNAMICS)  max=  2.04284639774261E-02
DEBUG_STATS_RL:                Vvel (DYNAMICS) mean=  7.24190880687442E-04
DEBUG_STATS_RL:                Vvel (DYNAMICS) S.D.=  4.28907995073846E-03
DEBUG_STATS_RL:                Wvel (DYNAMICS)  min= -4.27131465138430E-05
DEBUG_STATS_RL:                Wvel (DYNAMICS)  max=  1.16530364658749E-04
DEBUG_STATS_RL:                Wvel (DYNAMICS) mean= -4.07763417598552E-07
DEBUG_STATS_RL:                Wvel (DYNAMICS) S.D.=  1.80149904412009E-05
DEBUG_STATS_RL:               Theta (DYNAMICS)  min= -1.41019615972461E+00
DEBUG_STATS_RL:               Theta (DYNAMICS)  max=  1.32440592110212E+01
DEBUG_STATS_RL:               Theta (DYNAMICS) mean=  2.49735783552472E+00
DEBUG_STATS_RL:               Theta (DYNAMICS) S.D.=  2.45807980529386E+00
DEBUG_STATS_RL:                Salt (DYNAMICS)  min=  2.76560994014067E+01
DEBUG_STATS_RL:                Salt (DYNAMICS)  max=  3.54507778736995E+01
DEBUG_STATS_RL:                Salt (DYNAMICS) mean=  3.39623217189226E+01
DEBUG_STATS_RL:                Salt (DYNAMICS) S.D.=  1.10108958710671E+00
DEBUG_STATS_RL:                  Gu (DYNAMICS)  min= -2.89112950168885E-02
DEBUG_STATS_RL:                  Gu (DYNAMICS)  max=  3.25741619058367E-02
DEBUG_STATS_RL:                  Gu (DYNAMICS) mean= -2.32520622241554E-03
DEBUG_STATS_RL:                  Gu (DYNAMICS) S.D.=  7.09155735786199E-03
DEBUG_STATS_RL:                  Gv (DYNAMICS)  min= -3.71241625510621E-02
DEBUG_STATS_RL:                  Gv (DYNAMICS)  max=  1.83230442031147E-02
DEBUG_STATS_RL:                  Gv (DYNAMICS) mean= -1.89259208720662E-03
DEBUG_STATS_RL:                  Gv (DYNAMICS) S.D.=  7.31046974975958E-03
DEBUG_STATS_RL:               GuNm1 (DYNAMICS)  min= -1.80289983389196E-07
DEBUG_STATS_RL:               GuNm1 (DYNAMICS)  max=  1.49251399870334E-07
DEBUG_STATS_RL:               GuNm1 (DYNAMICS) mean=  3.41794292088730E-09
DEBUG_STATS_RL:               GuNm1 (DYNAMICS) S.D.=  3.19693794884499E-08
DEBUG_STATS_RL:               GvNm1 (DYNAMICS)  min= -5.11118133734402E-08
DEBUG_STATS_RL:               GvNm1 (DYNAMICS)  max=  4.88281454922596E-08
DEBUG_STATS_RL:               GvNm1 (DYNAMICS) mean= -4.70245831256227E-11
DEBUG_STATS_RL:               GvNm1 (DYNAMICS) S.D.=  1.42003013108260E-08
DEBUG_STATS_RL:               GtNm1 (DYNAMICS)  min=  0.00000000000000E+00
DEBUG_STATS_RL:               GtNm1 (DYNAMICS)  max=  0.00000000000000E+00
DEBUG_STATS_RL:               GtNm1 (DYNAMICS) mean=  0.00000000000000E+00
DEBUG_STATS_RL:               GtNm1 (DYNAMICS) S.D.=  0.00000000000000E+00
DEBUG_STATS_RL:               GsNm1 (DYNAMICS)  min=  0.00000000000000E+00
DEBUG_STATS_RL:               GsNm1 (DYNAMICS)  max=  0.00000000000000E+00
DEBUG_STATS_RL:               GsNm1 (DYNAMICS) mean=  0.00000000000000E+00
DEBUG_STATS_RL:               GsNm1 (DYNAMICS) S.D.=  0.00000000000000E+00
DEBUG_STATS_RL:    cg2d_b (SOLVE_FOR_PRESSURE)  min= -7.40048897093643E+03
DEBUG_STATS_RL:    cg2d_b (SOLVE_FOR_PRESSURE)  max=  2.33428667016753E+03
DEBUG_STATS_RL:    cg2d_b (SOLVE_FOR_PRESSURE) mean=  4.83169060316868E-14
DEBUG_STATS_RL:    cg2d_b (SOLVE_FOR_PRESSURE) S.D.=  9.39768538610355E+02
 cg2d: Sum(rhs),rhsMax =   1.63757896132211E-15  1.19110424780756E+00
DEBUG_STATS_RL:    cg2d_x (SOLVE_FOR_PRESSURE)  min= -1.25977767814684E+00
DEBUG_STATS_RL:    cg2d_x (SOLVE_FOR_PRESSURE)  max=  2.83276936769464E+00
DEBUG_STATS_RL:    cg2d_x (SOLVE_FOR_PRESSURE) mean= -1.56118539430736E-02
DEBUG_STATS_RL:    cg2d_x (SOLVE_FOR_PRESSURE) S.D.=  6.63083405130173E-01
DEBUG_STATS_RL:          Uvel (THERMODYNAMICS)  min= -4.02432897586650E-02
DEBUG_STATS_RL:          Uvel (THERMODYNAMICS)  max=  3.23458159885832E-02
DEBUG_STATS_RL:          Uvel (THERMODYNAMICS) mean=  6.75465330203663E-04
DEBUG_STATS_RL:          Uvel (THERMODYNAMICS) S.D.=  7.33761384667619E-03
DEBUG_STATS_RL:          Vvel (THERMODYNAMICS)  min= -1.64862319058739E-02
DEBUG_STATS_RL:          Vvel (THERMODYNAMICS)  max=  4.21759382970964E-02
DEBUG_STATS_RL:          Vvel (THERMODYNAMICS) mean=  1.82858022907541E-03
DEBUG_STATS_RL:          Vvel (THERMODYNAMICS) S.D.=  8.08424055893953E-03
DEBUG_STATS_RL:          Wvel (THERMODYNAMICS)  min= -6.56490529174613E-05
DEBUG_STATS_RL:          Wvel (THERMODYNAMICS)  max=  1.68683217295647E-04
DEBUG_STATS_RL:          Wvel (THERMODYNAMICS) mean= -4.30739495112499E-07
DEBUG_STATS_RL:          Wvel (THERMODYNAMICS) S.D.=  1.89945067258234E-05
DEBUG_STATS_RL:         Theta (THERMODYNAMICS)  min= -1.83156742552816E+00
DEBUG_STATS_RL:         Theta (THERMODYNAMICS)  max=  1.32606612249659E+01
DEBUG_STATS_RL:         Theta (THERMODYNAMICS) mean=  2.43057765558689E+00
DEBUG_STATS_RL:         Theta (THERMODYNAMICS) S.D.=  2.55246643542934E+00
DEBUG_STATS_RL:          Salt (THERMODYNAMICS)  min=  2.76092906345221E+01
DEBUG_STATS_RL:          Salt (THERMODYNAMICS)  max=  3.54509236522671E+01
DEBUG_STATS_RL:          Salt (THERMODYNAMICS) mean=  3.39413044254426E+01
DEBUG_STATS_RL:          Salt (THERMODYNAMICS) S.D.=  1.14495872836753E+00
DEBUG_STATS_RL:         GtNm1 (THERMODYNAMICS)  min=  0.00000000000000E+00
DEBUG_STATS_RL:         GtNm1 (THERMODYNAMICS)  max=  0.00000000000000E+00
DEBUG_STATS_RL:         GtNm1 (THERMODYNAMICS) mean=  0.00000000000000E+00
DEBUG_STATS_RL:         GtNm1 (THERMODYNAMICS) S.D.=  0.00000000000000E+00
DEBUG_STATS_RL:         GsNm1 (THERMODYNAMICS)  min=  0.00000000000000E+00
DEBUG_STATS_RL:         GsNm1 (THERMODYNAMICS)  max=  0.00000000000000E+00
DEBUG_STATS_RL:         GsNm1 (THERMODYNAMICS) mean=  0.00000000000000E+00
DEBUG_STATS_RL:         GsNm1 (THERMODYNAMICS) S.D.=  0.00000000000000E+00
(PID.TID 0000.0001)  MDS_WRITE_FIELD: it,rec,kS,kL,kH=       1     3   1   1   1 file=m_sst_step.0000000001
(PID.TID 0000.0001)  MDS_READ_FIELD: opening global file: xx_atemp.effective.0000000001.data
(PID.TID 0000.0001) EXF_SET_FLD: processing field "climsss",  file: SSS_monthly.labsea1979
(PID.TID 0000.0001) EXF_SET_FLD:   myIter, count0, count1:         2      1      2
(PID.TID 0000.0001) EXF_SET_FLD:   first, changed, fac:   F   F    0.49726775956284153
(PID.TID 0000.0001) EXF_SET_FLD: processing field "uwind",  file: u10m.labsea1979
(PID.TID 0000.0001) EXF_SET_FLD:   myIter, count0, count1:         2      1      2
(PID.TID 0000.0001) EXF_SET_FLD:   first, changed, fac:   F   F    0.49726775956284153
(PID.TID 0000.0001) EXF_SET_FLD: processing field "vwind",  file: v10m.labsea1979
(PID.TID 0000.0001) EXF_SET_FLD:   myIter, count0, count1:         2      1      2
(PID.TID 0000.0001) EXF_SET_FLD:   first, changed, fac:   F   F    0.49726775956284153
(PID.TID 0000.0001) EXF_SET_FLD: processing field "atemp",  file: tair.labsea1979
(PID.TID 0000.0001) EXF_SET_FLD:   myIter, count0, count1:         2      1      2
(PID.TID 0000.0001) EXF_SET_FLD:   first, changed, fac:   F   F    0.49726775956284153
(PID.TID 0000.0001) EXF_SET_FLD: processing field "aqh",  file: qa.labsea1979
(PID.TID 0000.0001) EXF_SET_FLD:   myIter, count0, count1:         2      1      2
(PID.TID 0000.0001) EXF_SET_FLD:   first, changed, fac:   F   F    0.49726775956284153
(PID.TID 0000.0001) EXF_SET_FLD: processing field "precip",  file: prate.labsea1979
(PID.TID 0000.0001) EXF_SET_FLD:   myIter, count0, count1:         2      1      2
(PID.TID 0000.0001) EXF_SET_FLD:   first, changed, fac:   F   F    0.49726775956284153
(PID.TID 0000.0001) EXF_SET_FLD: processing field "swdown",  file: fsh.labsea1979
(PID.TID 0000.0001) EXF_SET_FLD:   myIter, count0, count1:         2      1      2
(PID.TID 0000.0001) EXF_SET_FLD:   first, changed, fac:   F   F    0.49726775956284153
(PID.TID 0000.0001) EXF_SET_FLD: processing field "lwdown",  file: flo.labsea1979
(PID.TID 0000.0001) EXF_SET_FLD:   myIter, count0, count1:         2      1      2
(PID.TID 0000.0001) EXF_SET_FLD:   first, changed, fac:   F   F    0.49726775956284153
DEBUG_STATS_RL: Uice pre  iter (SEAICE_LSR  1)  min= -2.72590911190358E-03
DEBUG_STATS_RL: Uice pre  iter (SEAICE_LSR  1)  max=  1.84821888363615E-01
DEBUG_STATS_RL: Uice pre  iter (SEAICE_LSR  1) mean=  4.43171854917046E-02
DEBUG_STATS_RL: Uice pre  iter (SEAICE_LSR  1) S.D.=  5.55969094951588E-02
DEBUG_STATS_RL: Vice pre  iter (SEAICE_LSR  1)  min= -3.16987209121493E-02
DEBUG_STATS_RL: Vice pre  iter (SEAICE_LSR  1)  max=  6.25866618672353E-02
DEBUG_STATS_RL: Vice pre  iter (SEAICE_LSR  1) mean= -5.92146683087973E-03
DEBUG_STATS_RL: Vice pre  iter (SEAICE_LSR  1) S.D.=  1.77615498820518E-02
DEBUG_STATS_RL: Uice pre  iter (SEAICE_LSR  2)  min= -3.50206878134740E-03
DEBUG_STATS_RL: Uice pre  iter (SEAICE_LSR  2)  max=  1.92025155896598E-01
DEBUG_STATS_RL: Uice pre  iter (SEAICE_LSR  2) mean=  5.29589963328926E-02
DEBUG_STATS_RL: Uice pre  iter (SEAICE_LSR  2) S.D.=  5.86189159299128E-02
DEBUG_STATS_RL: Vice pre  iter (SEAICE_LSR  2)  min= -6.12456112266763E-02
DEBUG_STATS_RL: Vice pre  iter (SEAICE_LSR  2)  max=  9.55317561460538E-02
DEBUG_STATS_RL: Vice pre  iter (SEAICE_LSR  2) mean= -1.11523016932020E-02
DEBUG_STATS_RL: Vice pre  iter (SEAICE_LSR  2) S.D.=  2.73762100034349E-02
DEBUG_STATS_RL:                EtaN (DYNAMICS)  min= -1.28344439274913E-01
DEBUG_STATS_RL:                EtaN (DYNAMICS)  max=  2.88598696737300E-01
DEBUG_STATS_RL:                EtaN (DYNAMICS) mean= -1.59051448134333E-03
DEBUG_STATS_RL:                EtaN (DYNAMICS) S.D.=  6.75540369544574E-02
DEBUG_STATS_RL:                Uvel (DYNAMICS)  min= -4.02432897586650E-02
DEBUG_STATS_RL:                Uvel (DYNAMICS)  max=  3.23458159885832E-02
DEBUG_STATS_RL:                Uvel (DYNAMICS) mean=  6.75465330203663E-04
DEBUG_STATS_RL:                Uvel (DYNAMICS) S.D.=  7.33761384667619E-03
DEBUG_STATS_RL:                Vvel (DYNAMICS)  min= -1.64862319058739E-02
DEBUG_STATS_RL:                Vvel (DYNAMICS)  max=  4.21759382970964E-02
DEBUG_STATS_RL:                Vvel (DYNAMICS) mean=  1.82858022907541E-03
DEBUG_STATS_RL:                Vvel (DYNAMICS) S.D.=  8.08424055893953E-03
DEBUG_STATS_RL:                Wvel (DYNAMICS)  min= -6.56490529174613E-05
DEBUG_STATS_RL:                Wvel (DYNAMICS)  max=  1.68683217295647E-04
DEBUG_STATS_RL:                Wvel (DYNAMICS) mean= -4.30739495112499E-07
DEBUG_STATS_RL:                Wvel (DYNAMICS) S.D.=  1.89945067258234E-05
DEBUG_STATS_RL:               Theta (DYNAMICS)  min= -1.83156742552816E+00
DEBUG_STATS_RL:               Theta (DYNAMICS)  max=  1.32606612249659E+01
DEBUG_STATS_RL:               Theta (DYNAMICS) mean=  2.43057765558689E+00
DEBUG_STATS_RL:               Theta (DYNAMICS) S.D.=  2.55246643542934E+00
DEBUG_STATS_RL:                Salt (DYNAMICS)  min=  2.76092906345221E+01
DEBUG_STATS_RL:                Salt (DYNAMICS)  max=  3.54509236522671E+01
DEBUG_STATS_RL:                Salt (DYNAMICS) mean=  3.39413044254426E+01
DEBUG_STATS_RL:                Salt (DYNAMICS) S.D.=  1.14495872836753E+00
DEBUG_STATS_RL:                  Gu (DYNAMICS)  min= -3.23510557472038E-02
DEBUG_STATS_RL:                  Gu (DYNAMICS)  max=  5.80377411255949E-02
DEBUG_STATS_RL:                  Gu (DYNAMICS) mean= -2.97572069527752E-04
DEBUG_STATS_RL:                  Gu (DYNAMICS) S.D.=  9.92934455352220E-03
DEBUG_STATS_RL:                  Gv (DYNAMICS)  min= -4.01882757136262E-02
DEBUG_STATS_RL:                  Gv (DYNAMICS)  max=  3.49568132071783E-02
DEBUG_STATS_RL:                  Gv (DYNAMICS) mean= -2.47632966120258E-03
DEBUG_STATS_RL:                  Gv (DYNAMICS) S.D.=  9.60357312381936E-03
DEBUG_STATS_RL:               GuNm1 (DYNAMICS)  min= -2.64915263690508E-07
DEBUG_STATS_RL:               GuNm1 (DYNAMICS)  max=  1.75889100747609E-07
DEBUG_STATS_RL:               GuNm1 (DYNAMICS) mean=  2.42191647085200E-09
DEBUG_STATS_RL:               GuNm1 (DYNAMICS) S.D.=  4.49076324943155E-08
DEBUG_STATS_RL:               GvNm1 (DYNAMICS)  min= -8.47298200116606E-08
DEBUG_STATS_RL:               GvNm1 (DYNAMICS)  max=  7.67749697778867E-08
DEBUG_STATS_RL:               GvNm1 (DYNAMICS) mean= -4.71533361265418E-10
DEBUG_STATS_RL:               GvNm1 (DYNAMICS) S.D.=  2.04113373444339E-08
DEBUG_STATS_RL:               GtNm1 (DYNAMICS)  min=  0.00000000000000E+00
DEBUG_STATS_RL:               GtNm1 (DYNAMICS)  max=  0.00000000000000E+00
DEBUG_STATS_RL:               GtNm1 (DYNAMICS) mean=  0.00000000000000E+00
DEBUG_STATS_RL:               GtNm1 (DYNAMICS) S.D.=  0.00000000000000E+00
DEBUG_STATS_RL:               GsNm1 (DYNAMICS)  min=  0.00000000000000E+00
DEBUG_STATS_RL:               GsNm1 (DYNAMICS)  max=  0.00000000000000E+00
DEBUG_STATS_RL:               GsNm1 (DYNAMICS) mean=  0.00000000000000E+00
DEBUG_STATS_RL:               GsNm1 (DYNAMICS) S.D.=  0.00000000000000E+00
DEBUG_STATS_RL:    cg2d_b (SOLVE_FOR_PRESSURE)  min= -7.51696131718244E+03
DEBUG_STATS_RL:    cg2d_b (SOLVE_FOR_PRESSURE)  max=  2.21291016221048E+03
DEBUG_STATS_RL:    cg2d_b (SOLVE_FOR_PRESSURE) mean=  4.65547600470018E-13
DEBUG_STATS_RL:    cg2d_b (SOLVE_FOR_PRESSURE) S.D.=  9.35355930257326E+02
 cg2d: Sum(rhs),rhsMax =   9.06219543850284E-15  1.20985040186718E+00
DEBUG_STATS_RL:    cg2d_x (SOLVE_FOR_PRESSURE)  min= -1.39137659519041E+00
DEBUG_STATS_RL:    cg2d_x (SOLVE_FOR_PRESSURE)  max=  3.06244143644361E+00
DEBUG_STATS_RL:    cg2d_x (SOLVE_FOR_PRESSURE) mean= -2.04738907199869E-02
DEBUG_STATS_RL:    cg2d_x (SOLVE_FOR_PRESSURE) S.D.=  7.54254787473687E-01
DEBUG_STATS_RL:          Uvel (THERMODYNAMICS)  min= -4.85747443135359E-02
DEBUG_STATS_RL:          Uvel (THERMODYNAMICS)  max=  6.48566534974152E-02
DEBUG_STATS_RL:          Uvel (THERMODYNAMICS) mean=  2.83347825459555E-03
DEBUG_STATS_RL:          Uvel (THERMODYNAMICS) S.D.=  1.04406948546681E-02
DEBUG_STATS_RL:          Vvel (THERMODYNAMICS)  min= -2.93630589501767E-02
DEBUG_STATS_RL:          Vvel (THERMODYNAMICS)  max=  5.51081422495760E-02
DEBUG_STATS_RL:          Vvel (THERMODYNAMICS) mean=  1.89398823345760E-03
DEBUG_STATS_RL:          Vvel (THERMODYNAMICS) S.D.=  1.13685531753005E-02
DEBUG_STATS_RL:          Wvel (THERMODYNAMICS)  min= -1.01835019199988E-04
DEBUG_STATS_RL:          Wvel (THERMODYNAMICS)  max=  2.18299385766782E-04
DEBUG_STATS_RL:          Wvel (THERMODYNAMICS) mean= -3.58449213337660E-07
DEBUG_STATS_RL:          Wvel (THERMODYNAMICS) S.D.=  2.04428902649920E-05
DEBUG_STATS_RL:         Theta (THERMODYNAMICS)  min= -1.93250363389783E+00
DEBUG_STATS_RL:         Theta (THERMODYNAMICS)  max=  1.32631363173882E+01
DEBUG_STATS_RL:         Theta (THERMODYNAMICS) mean=  2.41867029854828E+00
DEBUG_STATS_RL:         Theta (THERMODYNAMICS) S.D.=  2.57126546321788E+00
DEBUG_STATS_RL:          Salt (THERMODYNAMICS)  min=  2.76143299539290E+01
DEBUG_STATS_RL:          Salt (THERMODYNAMICS)  max=  3.54510577106203E+01
DEBUG_STATS_RL:          Salt (THERMODYNAMICS) mean=  3.39375783473297E+01
DEBUG_STATS_RL:          Salt (THERMODYNAMICS) S.D.=  1.15271478316349E+00
DEBUG_STATS_RL:         GtNm1 (THERMODYNAMICS)  min=  0.00000000000000E+00
DEBUG_STATS_RL:         GtNm1 (THERMODYNAMICS)  max=  0.00000000000000E+00
DEBUG_STATS_RL:         GtNm1 (THERMODYNAMICS) mean=  0.00000000000000E+00
DEBUG_STATS_RL:         GtNm1 (THERMODYNAMICS) S.D.=  0.00000000000000E+00
DEBUG_STATS_RL:         GsNm1 (THERMODYNAMICS)  min=  0.00000000000000E+00
DEBUG_STATS_RL:         GsNm1 (THERMODYNAMICS)  max=  0.00000000000000E+00
DEBUG_STATS_RL:         GsNm1 (THERMODYNAMICS) mean=  0.00000000000000E+00
DEBUG_STATS_RL:         GsNm1 (THERMODYNAMICS) S.D.=  0.00000000000000E+00
(PID.TID 0000.0001)  MDS_WRITE_FIELD: it,rec,kS,kL,kH=       1     4   1   1   1 file=m_sst_step.0000000001
(PID.TID 0000.0001)  MDS_READ_FIELD: opening global file: xx_atemp.effective.0000000001.data
(PID.TID 0000.0001) EXF_SET_FLD: processing field "climsss",  file: SSS_monthly.labsea1979
(PID.TID 0000.0001) EXF_SET_FLD:   myIter, count0, count1:         3      1      2
(PID.TID 0000.0001) EXF_SET_FLD:   first, changed, fac:   F   F    0.49590163934426235
(PID.TID 0000.0001) EXF_SET_FLD: processing field "uwind",  file: u10m.labsea1979
(PID.TID 0000.0001) EXF_SET_FLD:   myIter, count0, count1:         3      1      2
(PID.TID 0000.0001) EXF_SET_FLD:   first, changed, fac:   F   F    0.49590163934426235
(PID.TID 0000.0001) EXF_SET_FLD: processing field "vwind",  file: v10m.labsea1979
(PID.TID 0000.0001) EXF_SET_FLD:   myIter, count0, count1:         3      1      2
(PID.TID 0000.0001) EXF_SET_FLD:   first, changed, fac:   F   F    0.49590163934426235
(PID.TID 0000.0001) EXF_SET_FLD: processing field "atemp",  file: tair.labsea1979
(PID.TID 0000.0001) EXF_SET_FLD:   myIter, count0, count1:         3      1      2
(PID.TID 0000.0001) EXF_SET_FLD:   first, changed, fac:   F   F    0.49590163934426235
(PID.TID 0000.0001) EXF_SET_FLD: processing field "aqh",  file: qa.labsea1979
(PID.TID 0000.0001) EXF_SET_FLD:   myIter, count0, count1:         3      1      2
(PID.TID 0000.0001) EXF_SET_FLD:   first, changed, fac:   F   F    0.49590163934426235
(PID.TID 0000.0001) EXF_SET_FLD: processing field "precip",  file: prate.labsea1979
(PID.TID 0000.0001) EXF_SET_FLD:   myIter, count0, count1:         3      1      2
(PID.TID 0000.0001) EXF_SET_FLD:   first, changed, fac:   F   F    0.49590163934426235
(PID.TID 0000.0001) EXF_SET_FLD: processing field "swdown",  file: fsh.labsea1979
(PID.TID 0000.0001) EXF_SET_FLD:   myIter, count0, count1:         3      1      2
(PID.TID 0000.0001) EXF_SET_FLD:   first, changed, fac:   F   F    0.49590163934426235
(PID.TID 0000.0001) EXF_SET_FLD: processing field "lwdown",  file: flo.labsea1979
(PID.TID 0000.0001) EXF_SET_FLD:   myIter, count0, count1:         3      1      2
(PID.TID 0000.0001) EXF_SET_FLD:   first, changed, fac:   F   F    0.49590163934426235
DEBUG_STATS_RL: Uice pre  iter (SEAICE_LSR  1)  min= -4.89522325595918E-03
DEBUG_STATS_RL: Uice pre  iter (SEAICE_LSR  1)  max=  1.61355517756085E-01
DEBUG_STATS_RL: Uice pre  iter (SEAICE_LSR  1) mean=  5.67051326035853E-02
DEBUG_STATS_RL: Uice pre  iter (SEAICE_LSR  1) S.D.=  5.73816154994947E-02
DEBUG_STATS_RL: Vice pre  iter (SEAICE_LSR  1)  min= -1.51246540995867E-01
DEBUG_STATS_RL: Vice pre  iter (SEAICE_LSR  1)  max=  8.91076561218487E-02
DEBUG_STATS_RL: Vice pre  iter (SEAICE_LSR  1) mean= -1.97403473770777E-02
DEBUG_STATS_RL: Vice pre  iter (SEAICE_LSR  1) S.D.=  3.94189649069258E-02
DEBUG_STATS_RL: Uice pre  iter (SEAICE_LSR  2)  min= -5.42054480415832E-03
DEBUG_STATS_RL: Uice pre  iter (SEAICE_LSR  2)  max=  2.02641844081809E-01
DEBUG_STATS_RL: Uice pre  iter (SEAICE_LSR  2) mean=  6.47762112261046E-02
DEBUG_STATS_RL: Uice pre  iter (SEAICE_LSR  2) S.D.=  6.71608790533084E-02
DEBUG_STATS_RL: Vice pre  iter (SEAICE_LSR  2)  min= -1.45601126352232E-01
DEBUG_STATS_RL: Vice pre  iter (SEAICE_LSR  2)  max=  1.04145470460116E-01
DEBUG_STATS_RL: Vice pre  iter (SEAICE_LSR  2) mean= -2.31827417442755E-02
DEBUG_STATS_RL: Vice pre  iter (SEAICE_LSR  2) S.D.=  4.33109039412325E-02
DEBUG_STATS_RL:                EtaN (DYNAMICS)  min= -1.41751558253231E-01
DEBUG_STATS_RL:                EtaN (DYNAMICS)  max=  3.11997375243858E-01
DEBUG_STATS_RL:                EtaN (DYNAMICS) mean= -2.08585218631433E-03
DEBUG_STATS_RL:                EtaN (DYNAMICS) S.D.=  7.68424535915978E-02
DEBUG_STATS_RL:                Uvel (DYNAMICS)  min= -4.85747443135359E-02
DEBUG_STATS_RL:                Uvel (DYNAMICS)  max=  6.48566534974152E-02
DEBUG_STATS_RL:                Uvel (DYNAMICS) mean=  2.83347825459555E-03
DEBUG_STATS_RL:                Uvel (DYNAMICS) S.D.=  1.04406948546681E-02
DEBUG_STATS_RL:                Vvel (DYNAMICS)  min= -2.93630589501767E-02
DEBUG_STATS_RL:                Vvel (DYNAMICS)  max=  5.51081422495760E-02
DEBUG_STATS_RL:                Vvel (DYNAMICS) mean=  1.89398823345760E-03
DEBUG_STATS_RL:                Vvel (DYNAMICS) S.D.=  1.13685531753005E-02
DEBUG_STATS_RL:                Wvel (DYNAMICS)  min= -1.01835019199988E-04
DEBUG_STATS_RL:                Wvel (DYNAMICS)  max=  2.18299385766782E-04
DEBUG_STATS_RL:                Wvel (DYNAMICS) mean= -3.58449213337660E-07
DEBUG_STATS_RL:                Wvel (DYNAMICS) S.D.=  2.04428902649920E-05
DEBUG_STATS_RL:               Theta (DYNAMICS)  min= -1.93250363389783E+00
DEBUG_STATS_RL:               Theta (DYNAMICS)  max=  1.32631363173882E+01
DEBUG_STATS_RL:               Theta (DYNAMICS) mean=  2.41867029854828E+00
DEBUG_STATS_RL:               Theta (DYNAMICS) S.D.=  2.57126546321788E+00
DEBUG_STATS_RL:                Salt (DYNAMICS)  min=  2.76143299539290E+01
DEBUG_STATS_RL:                Salt (DYNAMICS)  max=  3.54510577106203E+01
DEBUG_STATS_RL:                Salt (DYNAMICS) mean=  3.39375783473297E+01
DEBUG_STATS_RL:                Salt (DYNAMICS) S.D.=  1.15271478316349E+00
DEBUG_STATS_RL:                  Gu (DYNAMICS)  min= -3.31660092548340E-02
DEBUG_STATS_RL:                  Gu (DYNAMICS)  max=  7.71641715782453E-02
DEBUG_STATS_RL:                  Gu (DYNAMICS) mean=  1.79729889203018E-03
DEBUG_STATS_RL:                  Gu (DYNAMICS) S.D.=  1.23549872720744E-02
DEBUG_STATS_RL:                  Gv (DYNAMICS)  min= -6.51102265934937E-02
DEBUG_STATS_RL:                  Gv (DYNAMICS)  max=  4.74792371894019E-02
DEBUG_STATS_RL:                  Gv (DYNAMICS) mean= -3.61268002203885E-03
DEBUG_STATS_RL:                  Gv (DYNAMICS) S.D.=  1.25565096773607E-02
DEBUG_STATS_RL:               GuNm1 (DYNAMICS)  min= -2.57489899416699E-07
DEBUG_STATS_RL:               GuNm1 (DYNAMICS)  max=  1.89368528479158E-07
DEBUG_STATS_RL:               GuNm1 (DYNAMICS) mean=  4.40117075890559E-12
DEBUG_STATS_RL:               GuNm1 (DYNAMICS) S.D.=  4.68821385830665E-08
DEBUG_STATS_RL:               GvNm1 (DYNAMICS)  min= -1.09603640235133E-07
DEBUG_STATS_RL:               GvNm1 (DYNAMICS)  max=  9.62789262154708E-08
DEBUG_STATS_RL:               GvNm1 (DYNAMICS) mean= -8.49526391152121E-10
DEBUG_STATS_RL:               GvNm1 (DYNAMICS) S.D.=  2.55629549792411E-08
DEBUG_STATS_RL:               GtNm1 (DYNAMICS)  min=  0.00000000000000E+00
DEBUG_STATS_RL:               GtNm1 (DYNAMICS)  max=  0.00000000000000E+00
DEBUG_STATS_RL:               GtNm1 (DYNAMICS) mean=  0.00000000000000E+00
DEBUG_STATS_RL:               GtNm1 (DYNAMICS) S.D.=  0.00000000000000E+00
DEBUG_STATS_RL:               GsNm1 (DYNAMICS)  min=  0.00000000000000E+00
DEBUG_STATS_RL:               GsNm1 (DYNAMICS)  max=  0.00000000000000E+00
DEBUG_STATS_RL:               GsNm1 (DYNAMICS) mean=  0.00000000000000E+00
DEBUG_STATS_RL:               GsNm1 (DYNAMICS) S.D.=  0.00000000000000E+00
DEBUG_STATS_RL:    cg2d_b (SOLVE_FOR_PRESSURE)  min= -7.48820843436667E+03
DEBUG_STATS_RL:    cg2d_b (SOLVE_FOR_PRESSURE)  max=  2.19603477106482E+03
DEBUG_STATS_RL:    cg2d_b (SOLVE_FOR_PRESSURE) mean=  2.92554129070292E-13
DEBUG_STATS_RL:    cg2d_b (SOLVE_FOR_PRESSURE) S.D.=  9.20730314173800E+02
 cg2d: Sum(rhs),rhsMax =   6.09928774153445E-15  1.20522264267545E+00
DEBUG_STATS_RL:    cg2d_x (SOLVE_FOR_PRESSURE)  min= -1.31033012419215E+00
DEBUG_STATS_RL:    cg2d_x (SOLVE_FOR_PRESSURE)  max=  3.14089981024893E+00
DEBUG_STATS_RL:    cg2d_x (SOLVE_FOR_PRESSURE) mean= -2.47876044022632E-02
DEBUG_STATS_RL:    cg2d_x (SOLVE_FOR_PRESSURE) S.D.=  7.62604990072682E-01
DEBUG_STATS_RL:          Uvel (THERMODYNAMICS)  min= -4.51228100181653E-02
DEBUG_STATS_RL:          Uvel (THERMODYNAMICS)  max=  8.23946614698057E-02
DEBUG_STATS_RL:          Uvel (THERMODYNAMICS) mean=  4.46006533351408E-03
DEBUG_STATS_RL:          Uvel (THERMODYNAMICS) S.D.=  1.25503402183572E-02
DEBUG_STATS_RL:          Vvel (THERMODYNAMICS)  min= -5.43131072024460E-02
DEBUG_STATS_RL:          Vvel (THERMODYNAMICS)  max=  6.64710959483306E-02
DEBUG_STATS_RL:          Vvel (THERMODYNAMICS) mean=  9.07394962407492E-04
DEBUG_STATS_RL:          Vvel (THERMODYNAMICS) S.D.=  1.42265213439475E-02
DEBUG_STATS_RL:          Wvel (THERMODYNAMICS)  min= -1.50094143875169E-04
DEBUG_STATS_RL:          Wvel (THERMODYNAMICS)  max=  2.67848367720696E-04
DEBUG_STATS_RL:          Wvel (THERMODYNAMICS) mean= -2.83768310637389E-07
DEBUG_STATS_RL:          Wvel (THERMODYNAMICS) S.D.=  2.30755404976208E-05
DEBUG_STATS_RL:         Theta (THERMODYNAMICS)  min= -1.95323356757650E+00
DEBUG_STATS_RL:         Theta (THERMODYNAMICS)  max=  1.32611729219857E+01
DEBUG_STATS_RL:         Theta (THERMODYNAMICS) mean=  2.41624287435038E+00
DEBUG_STATS_RL:         Theta (THERMODYNAMICS) S.D.=  2.57467251754838E+00
DEBUG_STATS_RL:          Salt (THERMODYNAMICS)  min=  2.76192995644599E+01
DEBUG_STATS_RL:          Salt (THERMODYNAMICS)  max=  3.54511687806856E+01
DEBUG_STATS_RL:          Salt (THERMODYNAMICS) mean=  3.39368869963855E+01
DEBUG_STATS_RL:          Salt (THERMODYNAMICS) S.D.=  1.15395653842393E+00
DEBUG_STATS_RL:         GtNm1 (THERMODYNAMICS)  min=  0.00000000000000E+00
DEBUG_STATS_RL:         GtNm1 (THERMODYNAMICS)  max=  0.00000000000000E+00
DEBUG_STATS_RL:         GtNm1 (THERMODYNAMICS) mean=  0.00000000000000E+00
DEBUG_STATS_RL:         GtNm1 (THERMODYNAMICS) S.D.=  0.00000000000000E+00
DEBUG_STATS_RL:         GsNm1 (THERMODYNAMICS)  min=  0.00000000000000E+00
DEBUG_STATS_RL:         GsNm1 (THERMODYNAMICS)  max=  0.00000000000000E+00
DEBUG_STATS_RL:         GsNm1 (THERMODYNAMICS) mean=  0.00000000000000E+00
DEBUG_STATS_RL:         GsNm1 (THERMODYNAMICS) S.D.=  0.00000000000000E+00
(PID.TID 0000.0001)  MDS_WRITE_FIELD: it,rec,kS,kL,kH=       1     5   1   1   1 file=m_sst_step.0000000001
(PID.TID 0000.0001)  MDS_READ_FIELD: opening global file: xx_atemp.effective.0000000001.data
(PID.TID 0000.0001) EXF_SET_FLD: processing field "climsss",  file: SSS_monthly.labsea1979
(PID.TID 0000.0001) EXF_SET_FLD:   myIter, count0, count1:         4      1      2
(PID.TID 0000.0001) EXF_SET_FLD:   first, changed, fac:   F   F    0.49453551912568305
(PID.TID 0000.0001) EXF_SET_FLD: processing field "uwind",  file: u10m.labsea1979
(PID.TID 0000.0001) EXF_SET_FLD:   myIter, count0, count1:         4      1      2
(PID.TID 0000.0001) EXF_SET_FLD:   first, changed, fac:   F   F    0.49453551912568305
(PID.TID 0000.0001) EXF_SET_FLD: processing field "vwind",  file: v10m.labsea1979
(PID.TID 0000.0001) EXF_SET_FLD:   myIter, count0, count1:         4      1      2
(PID.TID 0000.0001) EXF_SET_FLD:   first, changed, fac:   F   F    0.49453551912568305
(PID.TID 0000.0001) EXF_SET_FLD: processing field "atemp",  file: tair.labsea1979
(PID.TID 0000.0001) EXF_SET_FLD:   myIter, count0, count1:         4      1      2
(PID.TID 0000.0001) EXF_SET_FLD:   first, changed, fac:   F   F    0.49453551912568305
(PID.TID 0000.0001) EXF_SET_FLD: processing field "aqh",  file: qa.labsea1979
(PID.TID 0000.0001) EXF_SET_FLD:   myIter, count0, count1:         4      1      2
(PID.TID 0000.0001) EXF_SET_FLD:   first, changed, fac:   F   F    0.49453551912568305
(PID.TID 0000.0001) EXF_SET_FLD: processing field "precip",  file: prate.labsea1979
(PID.TID 0000.0001) EXF_SET_FLD:   myIter, count0, count1:         4      1      2
(PID.TID 0000.0001) EXF_SET_FLD:   first, changed, fac:   F   F    0.49453551912568305
(PID.TID 0000.0001) EXF_SET_FLD: processing field "swdown",  file: fsh.labsea1979
(PID.TID 0000.0001) EXF_SET_FLD:   myIter, count0, count1:         4      1      2
(PID.TID 0000.0001) EXF_SET_FLD:   first, changed, fac:   F   F    0.49453551912568305
(PID.TID 0000.0001) EXF_SET_FLD: processing field "lwdown",  file: flo.labsea1979
(PID.TID 0000.0001) EXF_SET_FLD:   myIter, count0, count1:         4      1      2
(PID.TID 0000.0001) EXF_SET_FLD:   first, changed, fac:   F   F    0.49453551912568305
DEBUG_STATS_RL: Uice pre  iter (SEAICE_LSR  1)  min= -6.64884179984284E-03
DEBUG_STATS_RL: Uice pre  iter (SEAICE_LSR  1)  max=  1.92542735136310E-01
DEBUG_STATS_RL: Uice pre  iter (SEAICE_LSR  1) mean=  6.47686246164350E-02
DEBUG_STATS_RL: Uice pre  iter (SEAICE_LSR  1) S.D.=  6.59732959909717E-02
DEBUG_STATS_RL: Vice pre  iter (SEAICE_LSR  1)  min= -1.58345599530563E-01
DEBUG_STATS_RL: Vice pre  iter (SEAICE_LSR  1)  max=  1.04255589228156E-01
DEBUG_STATS_RL: Vice pre  iter (SEAICE_LSR  1) mean= -2.61122078453945E-02
DEBUG_STATS_RL: Vice pre  iter (SEAICE_LSR  1) S.D.=  4.54292968520511E-02
DEBUG_STATS_RL: Uice pre  iter (SEAICE_LSR  2)  min= -7.39582706169561E-03
DEBUG_STATS_RL: Uice pre  iter (SEAICE_LSR  2)  max=  2.22032103672184E-01
DEBUG_STATS_RL: Uice pre  iter (SEAICE_LSR  2) mean=  6.99701895634112E-02
DEBUG_STATS_RL: Uice pre  iter (SEAICE_LSR  2) S.D.=  7.26089122439890E-02
DEBUG_STATS_RL: Vice pre  iter (SEAICE_LSR  2)  min= -1.71770480186525E-01
DEBUG_STATS_RL: Vice pre  iter (SEAICE_LSR  2)  max=  1.08496327276559E-01
DEBUG_STATS_RL: Vice pre  iter (SEAICE_LSR  2) mean= -3.10609864818097E-02
DEBUG_STATS_RL: Vice pre  iter (SEAICE_LSR  2) S.D.=  4.99863315300658E-02
DEBUG_STATS_RL:                EtaN (DYNAMICS)  min= -1.33494653835950E-01
DEBUG_STATS_RL:                EtaN (DYNAMICS)  max=  3.19990607833340E-01
DEBUG_STATS_RL:                EtaN (DYNAMICS) mean= -2.52532747893793E-03
DEBUG_STATS_RL:                EtaN (DYNAMICS) S.D.=  7.76931608941564E-02
DEBUG_STATS_RL:                Uvel (DYNAMICS)  min= -4.51228100181653E-02
DEBUG_STATS_RL:                Uvel (DYNAMICS)  max=  8.23946614698057E-02
DEBUG_STATS_RL:                Uvel (DYNAMICS) mean=  4.46006533351408E-03
DEBUG_STATS_RL:                Uvel (DYNAMICS) S.D.=  1.25503402183572E-02
DEBUG_STATS_RL:                Vvel (DYNAMICS)  min= -5.43131072024460E-02
DEBUG_STATS_RL:                Vvel (DYNAMICS)  max=  6.64710959483306E-02
DEBUG_STATS_RL:                Vvel (DYNAMICS) mean=  9.07394962407492E-04
DEBUG_STATS_RL:                Vvel (DYNAMICS) S.D.=  1.42265213439475E-02
DEBUG_STATS_RL:                Wvel (DYNAMICS)  min= -1.50094143875169E-04
DEBUG_STATS_RL:                Wvel (DYNAMICS)  max=  2.67848367720696E-04
DEBUG_STATS_RL:                Wvel (DYNAMICS) mean= -2.83768310637389E-07
DEBUG_STATS_RL:                Wvel (DYNAMICS) S.D.=  2.30755404976208E-05
DEBUG_STATS_RL:               Theta (DYNAMICS)  min= -1.95323356757650E+00
DEBUG_STATS_RL:               Theta (DYNAMICS)  max=  1.32611729219857E+01
DEBUG_STATS_RL:               Theta (DYNAMICS) mean=  2.41624287435038E+00
DEBUG_STATS_RL:               Theta (DYNAMICS) S.D.=  2.57467251754838E+00
DEBUG_STATS_RL:                Salt (DYNAMICS)  min=  2.76192995644599E+01
DEBUG_STATS_RL:                Salt (DYNAMICS)  max=  3.54511687806856E+01
DEBUG_STATS_RL:                Salt (DYNAMICS) mean=  3.39368869963855E+01
DEBUG_STATS_RL:                Salt (DYNAMICS) S.D.=  1.15395653842393E+00
DEBUG_STATS_RL:                  Gu (DYNAMICS)  min= -3.06969616935954E-02
DEBUG_STATS_RL:                  Gu (DYNAMICS)  max=  9.72073114926345E-02
DEBUG_STATS_RL:                  Gu (DYNAMICS) mean=  3.10151082317554E-03
DEBUG_STATS_RL:                  Gu (DYNAMICS) S.D.=  1.41052551008701E-02
DEBUG_STATS_RL:                  Gv (DYNAMICS)  min= -9.53132079806659E-02
DEBUG_STATS_RL:                  Gv (DYNAMICS)  max=  5.33682068181783E-02
DEBUG_STATS_RL:                  Gv (DYNAMICS) mean= -5.06243016751948E-03
DEBUG_STATS_RL:                  Gv (DYNAMICS) S.D.=  1.53588463679190E-02
DEBUG_STATS_RL:               GuNm1 (DYNAMICS)  min= -2.35357489189899E-07
DEBUG_STATS_RL:               GuNm1 (DYNAMICS)  max=  1.71456102315419E-07
DEBUG_STATS_RL:               GuNm1 (DYNAMICS) mean= -2.01481983920485E-09
DEBUG_STATS_RL:               GuNm1 (DYNAMICS) S.D.=  4.45062316312266E-08
DEBUG_STATS_RL:               GvNm1 (DYNAMICS)  min= -1.49109605789102E-07
DEBUG_STATS_RL:               GvNm1 (DYNAMICS)  max=  1.05797935490741E-07
DEBUG_STATS_RL:               GvNm1 (DYNAMICS) mean= -1.04937902583668E-09
DEBUG_STATS_RL:               GvNm1 (DYNAMICS) S.D.=  3.09410614929397E-08
DEBUG_STATS_RL:               GtNm1 (DYNAMICS)  min=  0.00000000000000E+00
DEBUG_STATS_RL:               GtNm1 (DYNAMICS)  max=  0.00000000000000E+00
DEBUG_STATS_RL:               GtNm1 (DYNAMICS) mean=  0.00000000000000E+00
DEBUG_STATS_RL:               GtNm1 (DYNAMICS) S.D.=  0.00000000000000E+00
DEBUG_STATS_RL:               GsNm1 (DYNAMICS)  min=  0.00000000000000E+00
DEBUG_STATS_RL:               GsNm1 (DYNAMICS)  max=  0.00000000000000E+00
DEBUG_STATS_RL:               GsNm1 (DYNAMICS) mean=  0.00000000000000E+00
DEBUG_STATS_RL:               GsNm1 (DYNAMICS) S.D.=  0.00000000000000E+00
DEBUG_STATS_RL:    cg2d_b (SOLVE_FOR_PRESSURE)  min= -7.47095948274188E+03
DEBUG_STATS_RL:    cg2d_b (SOLVE_FOR_PRESSURE)  max=  2.18029189648811E+03
DEBUG_STATS_RL:    cg2d_b (SOLVE_FOR_PRESSURE) mean=  3.91651155950967E-13
DEBUG_STATS_RL:    cg2d_b (SOLVE_FOR_PRESSURE) S.D.=  9.11464014140495E+02
 cg2d: Sum(rhs),rhsMax =   8.49320613838245E-15  1.20244643428825E+00
DEBUG_STATS_RL:    cg2d_x (SOLVE_FOR_PRESSURE)  min= -1.27317826454460E+00
DEBUG_STATS_RL:    cg2d_x (SOLVE_FOR_PRESSURE)  max=  3.19622316797633E+00
DEBUG_STATS_RL:    cg2d_x (SOLVE_FOR_PRESSURE) mean= -2.95294169356112E-02
DEBUG_STATS_RL:    cg2d_x (SOLVE_FOR_PRESSURE) S.D.=  7.40273720373345E-01
DEBUG_STATS_RL:          Uvel (THERMODYNAMICS)  min= -3.64296443204137E-02
DEBUG_STATS_RL:          Uvel (THERMODYNAMICS)  max=  8.91662112566489E-02
DEBUG_STATS_RL:          Uvel (THERMODYNAMICS) mean=  5.18186102505075E-03
DEBUG_STATS_RL:          Uvel (THERMODYNAMICS) S.D.=  1.36791834404107E-02
DEBUG_STATS_RL:          Vvel (THERMODYNAMICS)  min= -8.48427067731359E-02
DEBUG_STATS_RL:          Vvel (THERMODYNAMICS)  max=  7.15709637633453E-02
DEBUG_STATS_RL:          Vvel (THERMODYNAMICS) mean= -6.25663991248717E-04
DEBUG_STATS_RL:          Vvel (THERMODYNAMICS) S.D.=  1.65568599029327E-02
DEBUG_STATS_RL:          Wvel (THERMODYNAMICS)  min= -2.02998023749468E-04
DEBUG_STATS_RL:          Wvel (THERMODYNAMICS)  max=  3.07634744219609E-04
DEBUG_STATS_RL:          Wvel (THERMODYNAMICS) mean= -2.14485636604629E-07
DEBUG_STATS_RL:          Wvel (THERMODYNAMICS) S.D.=  2.56514188295230E-05
DEBUG_STATS_RL:         Theta (THERMODYNAMICS)  min= -1.95891909892377E+00
DEBUG_STATS_RL:         Theta (THERMODYNAMICS)  max=  1.32575107273067E+01
DEBUG_STATS_RL:         Theta (THERMODYNAMICS) mean=  2.41560973729717E+00
DEBUG_STATS_RL:         Theta (THERMODYNAMICS) S.D.=  2.57506629522921E+00
DEBUG_STATS_RL:          Salt (THERMODYNAMICS)  min=  2.76241835718781E+01
DEBUG_STATS_RL:          Salt (THERMODYNAMICS)  max=  3.54512322319690E+01
DEBUG_STATS_RL:          Salt (THERMODYNAMICS) mean=  3.39367610972820E+01
DEBUG_STATS_RL:          Salt (THERMODYNAMICS) S.D.=  1.15400523729943E+00
DEBUG_STATS_RL:         GtNm1 (THERMODYNAMICS)  min=  0.00000000000000E+00
DEBUG_STATS_RL:         GtNm1 (THERMODYNAMICS)  max=  0.00000000000000E+00
DEBUG_STATS_RL:         GtNm1 (THERMODYNAMICS) mean=  0.00000000000000E+00
DEBUG_STATS_RL:         GtNm1 (THERMODYNAMICS) S.D.=  0.00000000000000E+00
DEBUG_STATS_RL:         GsNm1 (THERMODYNAMICS)  min=  0.00000000000000E+00
DEBUG_STATS_RL:         GsNm1 (THERMODYNAMICS)  max=  0.00000000000000E+00
DEBUG_STATS_RL:         GsNm1 (THERMODYNAMICS) mean=  0.00000000000000E+00
DEBUG_STATS_RL:         GsNm1 (THERMODYNAMICS) S.D.=  0.00000000000000E+00
(PID.TID 0000.0001)  MDS_WRITE_FIELD: it,rec,kS,kL,kH=       1     6   1   1   1 file=m_sst_step.0000000001
(PID.TID 0000.0001)  MDS_READ_FIELD: opening global file: xx_atemp.effective.0000000001.data
(PID.TID 0000.0001) EXF_SET_FLD: processing field "climsss",  file: SSS_monthly.labsea1979
(PID.TID 0000.0001) EXF_SET_FLD:   myIter, count0, count1:         5      1      2
(PID.TID 0000.0001) EXF_SET_FLD:   first, changed, fac:   F   F    0.49316939890710387
(PID.TID 0000.0001) EXF_SET_FLD: processing field "uwind",  file: u10m.labsea1979
(PID.TID 0000.0001) EXF_SET_FLD:   myIter, count0, count1:         5      1      2
(PID.TID 0000.0001) EXF_SET_FLD:   first, changed, fac:   F   F    0.49316939890710387
(PID.TID 0000.0001) EXF_SET_FLD: processing field "vwind",  file: v10m.labsea1979
(PID.TID 0000.0001) EXF_SET_FLD:   myIter, count0, count1:         5      1      2
(PID.TID 0000.0001) EXF_SET_FLD:   first, changed, fac:   F   F    0.49316939890710387
(PID.TID 0000.0001) EXF_SET_FLD: processing field "atemp",  file: tair.labsea1979
(PID.TID 0000.0001) EXF_SET_FLD:   myIter, count0, count1:         5      1      2
(PID.TID 0000.0001) EXF_SET_FLD:   first, changed, fac:   F   F    0.49316939890710387
(PID.TID 0000.0001) EXF_SET_FLD: processing field "aqh",  file: qa.labsea1979
(PID.TID 0000.0001) EXF_SET_FLD:   myIter, count0, count1:         5      1      2
(PID.TID 0000.0001) EXF_SET_FLD:   first, changed, fac:   F   F    0.49316939890710387
(PID.TID 0000.0001) EXF_SET_FLD: processing field "precip",  file: prate.labsea1979
(PID.TID 0000.0001) EXF_SET_FLD:   myIter, count0, count1:         5      1      2
(PID.TID 0000.0001) EXF_SET_FLD:   first, changed, fac:   F   F    0.49316939890710387
(PID.TID 0000.0001) EXF_SET_FLD: processing field "swdown",  file: fsh.labsea1979
(PID.TID 0000.0001) EXF_SET_FLD:   myIter, count0, count1:         5      1      2
(PID.TID 0000.0001) EXF_SET_FLD:   first, changed, fac:   F   F    0.49316939890710387
(PID.TID 0000.0001) EXF_SET_FLD: processing field "lwdown",  file: flo.labsea1979
(PID.TID 0000.0001) EXF_SET_FLD:   myIter, count0, count1:         5      1      2
(PID.TID 0000.0001) EXF_SET_FLD:   first, changed, fac:   F   F    0.49316939890710387
DEBUG_STATS_RL: Uice pre  iter (SEAICE_LSR  1)  min= -9.02121933428111E-03
DEBUG_STATS_RL: Uice pre  iter (SEAICE_LSR  1)  max=  2.19445684647109E-01
DEBUG_STATS_RL: Uice pre  iter (SEAICE_LSR  1) mean=  6.96639305502820E-02
DEBUG_STATS_RL: Uice pre  iter (SEAICE_LSR  1) S.D.=  7.25590715280101E-02
DEBUG_STATS_RL: Vice pre  iter (SEAICE_LSR  1)  min= -1.73112057819567E-01
DEBUG_STATS_RL: Vice pre  iter (SEAICE_LSR  1)  max=  1.05174802576008E-01
DEBUG_STATS_RL: Vice pre  iter (SEAICE_LSR  1) mean= -3.44957645455032E-02
DEBUG_STATS_RL: Vice pre  iter (SEAICE_LSR  1) S.D.=  5.17027322842104E-02
DEBUG_STATS_RL: Uice pre  iter (SEAICE_LSR  2)  min= -9.93295031152147E-03
DEBUG_STATS_RL: Uice pre  iter (SEAICE_LSR  2)  max=  2.37649472779152E-01
DEBUG_STATS_RL: Uice pre  iter (SEAICE_LSR  2) mean=  7.08960993523099E-02
DEBUG_STATS_RL: Uice pre  iter (SEAICE_LSR  2) S.D.=  7.51814019583779E-02
DEBUG_STATS_RL: Vice pre  iter (SEAICE_LSR  2)  min= -1.73458139241629E-01
DEBUG_STATS_RL: Vice pre  iter (SEAICE_LSR  2)  max=  1.02503634704982E-01
DEBUG_STATS_RL: Vice pre  iter (SEAICE_LSR  2) mean= -3.89801386768692E-02
DEBUG_STATS_RL: Vice pre  iter (SEAICE_LSR  2) S.D.=  5.44920749395015E-02
DEBUG_STATS_RL:                EtaN (DYNAMICS)  min= -1.29709672821285E-01
DEBUG_STATS_RL:                EtaN (DYNAMICS)  max=  3.25626876398420E-01
DEBUG_STATS_RL:                EtaN (DYNAMICS) mean= -3.00841690121960E-03
DEBUG_STATS_RL:                EtaN (DYNAMICS) S.D.=  7.54180814594467E-02
DEBUG_STATS_RL:                Uvel (DYNAMICS)  min= -3.64296443204137E-02
DEBUG_STATS_RL:                Uvel (DYNAMICS)  max=  8.91662112566489E-02
DEBUG_STATS_RL:                Uvel (DYNAMICS) mean=  5.18186102505075E-03
DEBUG_STATS_RL:                Uvel (DYNAMICS) S.D.=  1.36791834404107E-02
DEBUG_STATS_RL:                Vvel (DYNAMICS)  min= -8.48427067731359E-02
DEBUG_STATS_RL:                Vvel (DYNAMICS)  max=  7.15709637633453E-02
DEBUG_STATS_RL:                Vvel (DYNAMICS) mean= -6.25663991248717E-04
DEBUG_STATS_RL:                Vvel (DYNAMICS) S.D.=  1.65568599029327E-02
DEBUG_STATS_RL:                Wvel (DYNAMICS)  min= -2.02998023749468E-04
DEBUG_STATS_RL:                Wvel (DYNAMICS)  max=  3.07634744219609E-04
DEBUG_STATS_RL:                Wvel (DYNAMICS) mean= -2.14485636604629E-07
DEBUG_STATS_RL:                Wvel (DYNAMICS) S.D.=  2.56514188295230E-05
DEBUG_STATS_RL:               Theta (DYNAMICS)  min= -1.95891909892377E+00
DEBUG_STATS_RL:               Theta (DYNAMICS)  max=  1.32575107273067E+01
DEBUG_STATS_RL:               Theta (DYNAMICS) mean=  2.41560973729717E+00
DEBUG_STATS_RL:               Theta (DYNAMICS) S.D.=  2.57506629522921E+00
DEBUG_STATS_RL:                Salt (DYNAMICS)  min=  2.76241835718781E+01
DEBUG_STATS_RL:                Salt (DYNAMICS)  max=  3.54512322319690E+01
DEBUG_STATS_RL:                Salt (DYNAMICS) mean=  3.39367610972820E+01
DEBUG_STATS_RL:                Salt (DYNAMICS) S.D.=  1.15400523729943E+00
DEBUG_STATS_RL:                  Gu (DYNAMICS)  min= -3.40661284878344E-02
DEBUG_STATS_RL:                  Gu (DYNAMICS)  max=  1.09592409505602E-01
DEBUG_STATS_RL:                  Gu (DYNAMICS) mean=  3.43340148231630E-03
DEBUG_STATS_RL:                  Gu (DYNAMICS) S.D.=  1.52106643070873E-02
DEBUG_STATS_RL:                  Gv (DYNAMICS)  min= -1.19743996000493E-01
DEBUG_STATS_RL:                  Gv (DYNAMICS)  max=  5.31755908727338E-02
DEBUG_STATS_RL:                  Gv (DYNAMICS) mean= -6.43607759843762E-03
DEBUG_STATS_RL:                  Gv (DYNAMICS) S.D.=  1.74595586593171E-02
DEBUG_STATS_RL:               GuNm1 (DYNAMICS)  min= -2.94347299884286E-07
DEBUG_STATS_RL:               GuNm1 (DYNAMICS)  max=  1.78770581560384E-07
DEBUG_STATS_RL:               GuNm1 (DYNAMICS) mean= -3.06311171944569E-09
DEBUG_STATS_RL:               GuNm1 (DYNAMICS) S.D.=  4.19614199163191E-08
DEBUG_STATS_RL:               GvNm1 (DYNAMICS)  min= -1.82273635415878E-07
DEBUG_STATS_RL:               GvNm1 (DYNAMICS)  max=  1.24273330978458E-07
DEBUG_STATS_RL:               GvNm1 (DYNAMICS) mean= -1.05360009952097E-09
DEBUG_STATS_RL:               GvNm1 (DYNAMICS) S.D.=  3.58773704867976E-08
DEBUG_STATS_RL:               GtNm1 (DYNAMICS)  min=  0.00000000000000E+00
DEBUG_STATS_RL:               GtNm1 (DYNAMICS)  max=  0.00000000000000E+00
DEBUG_STATS_RL:               GtNm1 (DYNAMICS) mean=  0.00000000000000E+00
DEBUG_STATS_RL:               GtNm1 (DYNAMICS) S.D.=  0.00000000000000E+00
DEBUG_STATS_RL:               GsNm1 (DYNAMICS)  min=  0.00000000000000E+00
DEBUG_STATS_RL:               GsNm1 (DYNAMICS)  max=  0.00000000000000E+00
DEBUG_STATS_RL:               GsNm1 (DYNAMICS) mean=  0.00000000000000E+00
DEBUG_STATS_RL:               GsNm1 (DYNAMICS) S.D.=  0.00000000000000E+00
DEBUG_STATS_RL:    cg2d_b (SOLVE_FOR_PRESSURE)  min= -7.45833771571443E+03
DEBUG_STATS_RL:    cg2d_b (SOLVE_FOR_PRESSURE)  max=  2.17494903027787E+03
DEBUG_STATS_RL:    cg2d_b (SOLVE_FOR_PRESSURE) mean=  5.55549680332964E-13
DEBUG_STATS_RL:    cg2d_b (SOLVE_FOR_PRESSURE) S.D.=  9.06377010650220E+02
 cg2d: Sum(rhs),rhsMax =   1.11369247157711E-14  1.20041496847832E+00
DEBUG_STATS_RL:    cg2d_x (SOLVE_FOR_PRESSURE)  min= -1.23196163368193E+00
DEBUG_STATS_RL:    cg2d_x (SOLVE_FOR_PRESSURE)  max=  3.23727429689773E+00
DEBUG_STATS_RL:    cg2d_x (SOLVE_FOR_PRESSURE) mean= -3.45194761147554E-02
DEBUG_STATS_RL:    cg2d_x (SOLVE_FOR_PRESSURE) S.D.=  7.10912240392813E-01
DEBUG_STATS_RL:          Uvel (THERMODYNAMICS)  min= -3.59096386964085E-02
DEBUG_STATS_RL:          Uvel (THERMODYNAMICS)  max=  1.01288605318195E-01
DEBUG_STATS_RL:          Uvel (THERMODYNAMICS) mean=  5.06442107691372E-03
DEBUG_STATS_RL:          Uvel (THERMODYNAMICS) S.D.=  1.40087544095644E-02
DEBUG_STATS_RL:          Vvel (THERMODYNAMICS)  min= -1.10756263988797E-01
DEBUG_STATS_RL:          Vvel (THERMODYNAMICS)  max=  7.07208418107751E-02
DEBUG_STATS_RL:          Vvel (THERMODYNAMICS) mean= -2.17557054828398E-03
DEBUG_STATS_RL:          Vvel (THERMODYNAMICS) S.D.=  1.80912833066407E-02
DEBUG_STATS_RL:          Wvel (THERMODYNAMICS)  min= -2.43811460414305E-04
DEBUG_STATS_RL:          Wvel (THERMODYNAMICS)  max=  3.28816353261779E-04
DEBUG_STATS_RL:          Wvel (THERMODYNAMICS) mean= -1.37923543342590E-07
DEBUG_STATS_RL:          Wvel (THERMODYNAMICS) S.D.=  2.75149300864466E-05
DEBUG_STATS_RL:         Theta (THERMODYNAMICS)  min= -1.96015217723734E+00
DEBUG_STATS_RL:         Theta (THERMODYNAMICS)  max=  1.32512671183369E+01
DEBUG_STATS_RL:         Theta (THERMODYNAMICS) mean=  2.41531606071968E+00
DEBUG_STATS_RL:         Theta (THERMODYNAMICS) S.D.=  2.57483151675911E+00
DEBUG_STATS_RL:          Salt (THERMODYNAMICS)  min=  2.76290307531745E+01
DEBUG_STATS_RL:          Salt (THERMODYNAMICS)  max=  3.54512307060718E+01
DEBUG_STATS_RL:          Salt (THERMODYNAMICS) mean=  3.39367446276231E+01
DEBUG_STATS_RL:          Salt (THERMODYNAMICS) S.D.=  1.15382313156974E+00
DEBUG_STATS_RL:         GtNm1 (THERMODYNAMICS)  min=  0.00000000000000E+00
DEBUG_STATS_RL:         GtNm1 (THERMODYNAMICS)  max=  0.00000000000000E+00
DEBUG_STATS_RL:         GtNm1 (THERMODYNAMICS) mean=  0.00000000000000E+00
DEBUG_STATS_RL:         GtNm1 (THERMODYNAMICS) S.D.=  0.00000000000000E+00
DEBUG_STATS_RL:         GsNm1 (THERMODYNAMICS)  min=  0.00000000000000E+00
DEBUG_STATS_RL:         GsNm1 (THERMODYNAMICS)  max=  0.00000000000000E+00
DEBUG_STATS_RL:         GsNm1 (THERMODYNAMICS) mean=  0.00000000000000E+00
DEBUG_STATS_RL:         GsNm1 (THERMODYNAMICS) S.D.=  0.00000000000000E+00
(PID.TID 0000.0001)  MDS_WRITE_FIELD: it,rec,kS,kL,kH=       1     7   1   1   1 file=m_sst_step.0000000001
(PID.TID 0000.0001)  MDS_READ_FIELD: opening global file: xx_atemp.effective.0000000001.data
(PID.TID 0000.0001) EXF_SET_FLD: processing field "climsss",  file: SSS_monthly.labsea1979
(PID.TID 0000.0001) EXF_SET_FLD:   myIter, count0, count1:         6      1      2
(PID.TID 0000.0001) EXF_SET_FLD:   first, changed, fac:   F   F    0.49180327868852458
(PID.TID 0000.0001) EXF_SET_FLD: processing field "uwind",  file: u10m.labsea1979
(PID.TID 0000.0001) EXF_SET_FLD:   myIter, count0, count1:         6      1      2
(PID.TID 0000.0001) EXF_SET_FLD:   first, changed, fac:   F   F    0.49180327868852458
(PID.TID 0000.0001) EXF_SET_FLD: processing field "vwind",  file: v10m.labsea1979
(PID.TID 0000.0001) EXF_SET_FLD:   myIter, count0, count1:         6      1      2
(PID.TID 0000.0001) EXF_SET_FLD:   first, changed, fac:   F   F    0.49180327868852458
(PID.TID 0000.0001) EXF_SET_FLD: processing field "atemp",  file: tair.labsea1979
(PID.TID 0000.0001) EXF_SET_FLD:   myIter, count0, count1:         6      1      2
(PID.TID 0000.0001) EXF_SET_FLD:   first, changed, fac:   F   F    0.49180327868852458
(PID.TID 0000.0001) EXF_SET_FLD: processing field "aqh",  file: qa.labsea1979
(PID.TID 0000.0001) EXF_SET_FLD:   myIter, count0, count1:         6      1      2
(PID.TID 0000.0001) EXF_SET_FLD:   first, changed, fac:   F   F    0.49180327868852458
(PID.TID 0000.0001) EXF_SET_FLD: processing field "precip",  file: prate.labsea1979
(PID.TID 0000.0001) EXF_SET_FLD:   myIter, count0, count1:         6      1      2
(PID.TID 0000.0001) EXF_SET_FLD:   first, changed, fac:   F   F    0.49180327868852458
(PID.TID 0000.0001) EXF_SET_FLD: processing field "swdown",  file: fsh.labsea1979
(PID.TID 0000.0001) EXF_SET_FLD:   myIter, count0, count1:         6      1      2
(PID.TID 0000.0001) EXF_SET_FLD:   first, changed, fac:   F   F    0.49180327868852458
(PID.TID 0000.0001) EXF_SET_FLD: processing field "lwdown",  file: flo.labsea1979
(PID.TID 0000.0001) EXF_SET_FLD:   myIter, count0, count1:         6      1      2
(PID.TID 0000.0001) EXF_SET_FLD:   first, changed, fac:   F   F    0.49180327868852458
DEBUG_STATS_RL: Uice pre  iter (SEAICE_LSR  1)  min= -1.19106759196605E-02
DEBUG_STATS_RL: Uice pre  iter (SEAICE_LSR  1)  max=  2.40859973799500E-01
DEBUG_STATS_RL: Uice pre  iter (SEAICE_LSR  1) mean=  7.02597534860995E-02
DEBUG_STATS_RL: Uice pre  iter (SEAICE_LSR  1) S.D.=  7.57773428259755E-02
DEBUG_STATS_RL: Vice pre  iter (SEAICE_LSR  1)  min= -1.74132342678210E-01
DEBUG_STATS_RL: Vice pre  iter (SEAICE_LSR  1)  max=  9.66358613081403E-02
DEBUG_STATS_RL: Vice pre  iter (SEAICE_LSR  1) mean= -4.28491368242817E-02
DEBUG_STATS_RL: Vice pre  iter (SEAICE_LSR  1) S.D.=  5.63763392291605E-02
DEBUG_STATS_RL: Uice pre  iter (SEAICE_LSR  2)  min= -1.30564509125745E-02
DEBUG_STATS_RL: Uice pre  iter (SEAICE_LSR  2)  max=  2.47901039964918E-01
DEBUG_STATS_RL: Uice pre  iter (SEAICE_LSR  2) mean=  6.80717062410252E-02
DEBUG_STATS_RL: Uice pre  iter (SEAICE_LSR  2) S.D.=  7.48548542542623E-02
DEBUG_STATS_RL: Vice pre  iter (SEAICE_LSR  2)  min= -1.68314830999125E-01
DEBUG_STATS_RL: Vice pre  iter (SEAICE_LSR  2)  max=  8.87290074915904E-02
DEBUG_STATS_RL: Vice pre  iter (SEAICE_LSR  2) mean= -4.61137817409495E-02
DEBUG_STATS_RL: Vice pre  iter (SEAICE_LSR  2) S.D.=  5.74118961796392E-02
DEBUG_STATS_RL:                EtaN (DYNAMICS)  min= -1.25510578434525E-01
DEBUG_STATS_RL:                EtaN (DYNAMICS)  max=  3.29809109672128E-01
DEBUG_STATS_RL:                EtaN (DYNAMICS) mean= -3.51679735469614E-03
DEBUG_STATS_RL:                EtaN (DYNAMICS) S.D.=  7.24267737471793E-02
DEBUG_STATS_RL:                Uvel (DYNAMICS)  min= -3.59096386964085E-02
DEBUG_STATS_RL:                Uvel (DYNAMICS)  max=  1.01288605318195E-01
DEBUG_STATS_RL:                Uvel (DYNAMICS) mean=  5.06442107691372E-03
DEBUG_STATS_RL:                Uvel (DYNAMICS) S.D.=  1.40087544095644E-02
DEBUG_STATS_RL:                Vvel (DYNAMICS)  min= -1.10756263988797E-01
DEBUG_STATS_RL:                Vvel (DYNAMICS)  max=  7.07208418107751E-02
DEBUG_STATS_RL:                Vvel (DYNAMICS) mean= -2.17557054828398E-03
DEBUG_STATS_RL:                Vvel (DYNAMICS) S.D.=  1.80912833066407E-02
DEBUG_STATS_RL:                Wvel (DYNAMICS)  min= -2.43811460414305E-04
DEBUG_STATS_RL:                Wvel (DYNAMICS)  max=  3.28816353261779E-04
DEBUG_STATS_RL:                Wvel (DYNAMICS) mean= -1.37923543342590E-07
DEBUG_STATS_RL:                Wvel (DYNAMICS) S.D.=  2.75149300864466E-05
DEBUG_STATS_RL:               Theta (DYNAMICS)  min= -1.96015217723734E+00
DEBUG_STATS_RL:               Theta (DYNAMICS)  max=  1.32512671183369E+01
DEBUG_STATS_RL:               Theta (DYNAMICS) mean=  2.41531606071968E+00
DEBUG_STATS_RL:               Theta (DYNAMICS) S.D.=  2.57483151675911E+00
DEBUG_STATS_RL:                Salt (DYNAMICS)  min=  2.76290307531745E+01
DEBUG_STATS_RL:                Salt (DYNAMICS)  max=  3.54512307060718E+01
DEBUG_STATS_RL:                Salt (DYNAMICS) mean=  3.39367446276231E+01
DEBUG_STATS_RL:                Salt (DYNAMICS) S.D.=  1.15382313156974E+00
DEBUG_STATS_RL:                  Gu (DYNAMICS)  min= -4.45840116890609E-02
DEBUG_STATS_RL:                  Gu (DYNAMICS)  max=  1.13252404039500E-01
DEBUG_STATS_RL:                  Gu (DYNAMICS) mean=  3.02808241161271E-03
DEBUG_STATS_RL:                  Gu (DYNAMICS) S.D.=  1.59063121238867E-02
DEBUG_STATS_RL:                  Gv (DYNAMICS)  min= -1.34630447324907E-01
DEBUG_STATS_RL:                  Gv (DYNAMICS)  max=  4.81174890382836E-02
DEBUG_STATS_RL:                  Gv (DYNAMICS) mean= -7.41639241986264E-03
DEBUG_STATS_RL:                  Gv (DYNAMICS) S.D.=  1.85638365104751E-02
DEBUG_STATS_RL:               GuNm1 (DYNAMICS)  min= -3.33271036892892E-07
DEBUG_STATS_RL:               GuNm1 (DYNAMICS)  max=  1.87479663955276E-07
DEBUG_STATS_RL:               GuNm1 (DYNAMICS) mean= -3.31200046769595E-09
DEBUG_STATS_RL:               GuNm1 (DYNAMICS) S.D.=  4.08419141881936E-08
DEBUG_STATS_RL:               GvNm1 (DYNAMICS)  min= -2.04912919624489E-07
DEBUG_STATS_RL:               GvNm1 (DYNAMICS)  max=  1.56710147054419E-07
DEBUG_STATS_RL:               GvNm1 (DYNAMICS) mean= -8.96938696730816E-10
DEBUG_STATS_RL:               GvNm1 (DYNAMICS) S.D.=  3.95873164870882E-08
DEBUG_STATS_RL:               GtNm1 (DYNAMICS)  min=  0.00000000000000E+00
DEBUG_STATS_RL:               GtNm1 (DYNAMICS)  max=  0.00000000000000E+00
DEBUG_STATS_RL:               GtNm1 (DYNAMICS) mean=  0.00000000000000E+00
DEBUG_STATS_RL:               GtNm1 (DYNAMICS) S.D.=  0.00000000000000E+00
DEBUG_STATS_RL:               GsNm1 (DYNAMICS)  min=  0.00000000000000E+00
DEBUG_STATS_RL:               GsNm1 (DYNAMICS)  max=  0.00000000000000E+00
DEBUG_STATS_RL:               GsNm1 (DYNAMICS) mean=  0.00000000000000E+00
DEBUG_STATS_RL:               GsNm1 (DYNAMICS) S.D.=  0.00000000000000E+00
DEBUG_STATS_RL:    cg2d_b (SOLVE_FOR_PRESSURE)  min= -7.43169656860998E+03
DEBUG_STATS_RL:    cg2d_b (SOLVE_FOR_PRESSURE)  max=  2.17598296942657E+03
DEBUG_STATS_RL:    cg2d_b (SOLVE_FOR_PRESSURE) mean=  6.68099649677364E-13
DEBUG_STATS_RL:    cg2d_b (SOLVE_FOR_PRESSURE) S.D.=  9.02750100849588E+02
 cg2d: Sum(rhs),rhsMax =   1.38847267017184E-14  1.19612709187892E+00
DEBUG_STATS_RL:    cg2d_x (SOLVE_FOR_PRESSURE)  min= -1.18794061890952E+00
DEBUG_STATS_RL:    cg2d_x (SOLVE_FOR_PRESSURE)  max=  3.24511049575630E+00
DEBUG_STATS_RL:    cg2d_x (SOLVE_FOR_PRESSURE) mean= -3.88654400025137E-02
DEBUG_STATS_RL:    cg2d_x (SOLVE_FOR_PRESSURE) S.D.=  6.81167535252411E-01
DEBUG_STATS_RL:          Uvel (THERMODYNAMICS)  min= -3.57601727935642E-02
DEBUG_STATS_RL:          Uvel (THERMODYNAMICS)  max=  1.04775938290593E-01
DEBUG_STATS_RL:          Uvel (THERMODYNAMICS) mean=  4.39725630125124E-03
DEBUG_STATS_RL:          Uvel (THERMODYNAMICS) S.D.=  1.39028540310335E-02
DEBUG_STATS_RL:          Vvel (THERMODYNAMICS)  min= -1.27584762387763E-01
DEBUG_STATS_RL:          Vvel (THERMODYNAMICS)  max=  6.50083276838882E-02
DEBUG_STATS_RL:          Vvel (THERMODYNAMICS) mean= -3.36887217582058E-03
DEBUG_STATS_RL:          Vvel (THERMODYNAMICS) S.D.=  1.85890275650219E-02
DEBUG_STATS_RL:          Wvel (THERMODYNAMICS)  min= -2.67954696014337E-04
DEBUG_STATS_RL:          Wvel (THERMODYNAMICS)  max=  3.29804232734354E-04
DEBUG_STATS_RL:          Wvel (THERMODYNAMICS) mean= -4.85616750766825E-08
DEBUG_STATS_RL:          Wvel (THERMODYNAMICS) S.D.=  2.84164537902826E-05
DEBUG_STATS_RL:         Theta (THERMODYNAMICS)  min= -1.95963016104371E+00
DEBUG_STATS_RL:         Theta (THERMODYNAMICS)  max=  1.32396343409662E+01
DEBUG_STATS_RL:         Theta (THERMODYNAMICS) mean=  2.41506584132490E+00
DEBUG_STATS_RL:         Theta (THERMODYNAMICS) S.D.=  2.57443936967394E+00
DEBUG_STATS_RL:          Salt (THERMODYNAMICS)  min=  2.76338867569799E+01
DEBUG_STATS_RL:          Salt (THERMODYNAMICS)  max=  3.54511617149686E+01
DEBUG_STATS_RL:          Salt (THERMODYNAMICS) mean=  3.39367496241620E+01
DEBUG_STATS_RL:          Salt (THERMODYNAMICS) S.D.=  1.15359229307806E+00
DEBUG_STATS_RL:         GtNm1 (THERMODYNAMICS)  min=  0.00000000000000E+00
DEBUG_STATS_RL:         GtNm1 (THERMODYNAMICS)  max=  0.00000000000000E+00
DEBUG_STATS_RL:         GtNm1 (THERMODYNAMICS) mean=  0.00000000000000E+00
DEBUG_STATS_RL:         GtNm1 (THERMODYNAMICS) S.D.=  0.00000000000000E+00
DEBUG_STATS_RL:         GsNm1 (THERMODYNAMICS)  min=  0.00000000000000E+00
DEBUG_STATS_RL:         GsNm1 (THERMODYNAMICS)  max=  0.00000000000000E+00
DEBUG_STATS_RL:         GsNm1 (THERMODYNAMICS) mean=  0.00000000000000E+00
DEBUG_STATS_RL:         GsNm1 (THERMODYNAMICS) S.D.=  0.00000000000000E+00
(PID.TID 0000.0001)  MDS_WRITE_FIELD: it,rec,kS,kL,kH=       1     8   1   1   1 file=m_sst_step.0000000001
(PID.TID 0000.0001)  MDS_READ_FIELD: opening global file: xx_atemp.effective.0000000001.data
(PID.TID 0000.0001) EXF_SET_FLD: processing field "climsss",  file: SSS_monthly.labsea1979
(PID.TID 0000.0001) EXF_SET_FLD:   myIter, count0, count1:         7      1      2
(PID.TID 0000.0001) EXF_SET_FLD:   first, changed, fac:   F   F    0.49043715846994540
(PID.TID 0000.0001) EXF_SET_FLD: processing field "uwind",  file: u10m.labsea1979
(PID.TID 0000.0001) EXF_SET_FLD:   myIter, count0, count1:         7      1      2
(PID.TID 0000.0001) EXF_SET_FLD:   first, changed, fac:   F   F    0.49043715846994540
(PID.TID 0000.0001) EXF_SET_FLD: processing field "vwind",  file: v10m.labsea1979
(PID.TID 0000.0001) EXF_SET_FLD:   myIter, count0, count1:         7      1      2
(PID.TID 0000.0001) EXF_SET_FLD:   first, changed, fac:   F   F    0.49043715846994540
(PID.TID 0000.0001) EXF_SET_FLD: processing field "atemp",  file: tair.labsea1979
(PID.TID 0000.0001) EXF_SET_FLD:   myIter, count0, count1:         7      1      2
(PID.TID 0000.0001) EXF_SET_FLD:   first, changed, fac:   F   F    0.49043715846994540
(PID.TID 0000.0001) EXF_SET_FLD: processing field "aqh",  file: qa.labsea1979
(PID.TID 0000.0001) EXF_SET_FLD:   myIter, count0, count1:         7      1      2
(PID.TID 0000.0001) EXF_SET_FLD:   first, changed, fac:   F   F    0.49043715846994540
(PID.TID 0000.0001) EXF_SET_FLD: processing field "precip",  file: prate.labsea1979
(PID.TID 0000.0001) EXF_SET_FLD:   myIter, count0, count1:         7      1      2
(PID.TID 0000.0001) EXF_SET_FLD:   first, changed, fac:   F   F    0.49043715846994540
(PID.TID 0000.0001) EXF_SET_FLD: processing field "swdown",  file: fsh.labsea1979
(PID.TID 0000.0001) EXF_SET_FLD:   myIter, count0, count1:         7      1      2
(PID.TID 0000.0001) EXF_SET_FLD:   first, changed, fac:   F   F    0.49043715846994540
(PID.TID 0000.0001) EXF_SET_FLD: processing field "lwdown",  file: flo.labsea1979
(PID.TID 0000.0001) EXF_SET_FLD:   myIter, count0, count1:         7      1      2
(PID.TID 0000.0001) EXF_SET_FLD:   first, changed, fac:   F   F    0.49043715846994540
DEBUG_STATS_RL: Uice pre  iter (SEAICE_LSR  1)  min= -1.54549194525851E-02
DEBUG_STATS_RL: Uice pre  iter (SEAICE_LSR  1)  max=  2.53524286292195E-01
DEBUG_STATS_RL: Uice pre  iter (SEAICE_LSR  1) mean=  6.68799365319967E-02
DEBUG_STATS_RL: Uice pre  iter (SEAICE_LSR  1) S.D.=  7.54478852962678E-02
DEBUG_STATS_RL: Vice pre  iter (SEAICE_LSR  1)  min= -1.68373183021285E-01
DEBUG_STATS_RL: Vice pre  iter (SEAICE_LSR  1)  max=  8.10859368452306E-02
DEBUG_STATS_RL: Vice pre  iter (SEAICE_LSR  1) mean= -4.94905385201103E-02
DEBUG_STATS_RL: Vice pre  iter (SEAICE_LSR  1) S.D.=  5.89447951203546E-02
DEBUG_STATS_RL: Uice pre  iter (SEAICE_LSR  2)  min= -1.68104910559748E-02
DEBUG_STATS_RL: Uice pre  iter (SEAICE_LSR  2)  max=  2.51381266335640E-01
DEBUG_STATS_RL: Uice pre  iter (SEAICE_LSR  2) mean=  6.26056742416918E-02
DEBUG_STATS_RL: Uice pre  iter (SEAICE_LSR  2) S.D.=  7.23215228186709E-02
DEBUG_STATS_RL: Vice pre  iter (SEAICE_LSR  2)  min= -1.70146515867245E-01
DEBUG_STATS_RL: Vice pre  iter (SEAICE_LSR  2)  max=  7.01571636850258E-02
DEBUG_STATS_RL: Vice pre  iter (SEAICE_LSR  2) mean= -5.12009841743927E-02
DEBUG_STATS_RL: Vice pre  iter (SEAICE_LSR  2) S.D.=  5.84735965012282E-02
DEBUG_STATS_RL:                EtaN (DYNAMICS)  min= -1.21025777222943E-01
DEBUG_STATS_RL:                EtaN (DYNAMICS)  max=  3.30607450971546E-01
DEBUG_STATS_RL:                EtaN (DYNAMICS) mean= -3.95955825446369E-03
DEBUG_STATS_RL:                EtaN (DYNAMICS) S.D.=  6.93964235759823E-02
DEBUG_STATS_RL:                Uvel (DYNAMICS)  min= -3.57601727935642E-02
DEBUG_STATS_RL:                Uvel (DYNAMICS)  max=  1.04775938290593E-01
DEBUG_STATS_RL:                Uvel (DYNAMICS) mean=  4.39725630125124E-03
DEBUG_STATS_RL:                Uvel (DYNAMICS) S.D.=  1.39028540310335E-02
DEBUG_STATS_RL:                Vvel (DYNAMICS)  min= -1.27584762387763E-01
DEBUG_STATS_RL:                Vvel (DYNAMICS)  max=  6.50083276838882E-02
DEBUG_STATS_RL:                Vvel (DYNAMICS) mean= -3.36887217582058E-03
DEBUG_STATS_RL:                Vvel (DYNAMICS) S.D.=  1.85890275650219E-02
DEBUG_STATS_RL:                Wvel (DYNAMICS)  min= -2.67954696014337E-04
DEBUG_STATS_RL:                Wvel (DYNAMICS)  max=  3.29804232734354E-04
DEBUG_STATS_RL:                Wvel (DYNAMICS) mean= -4.85616750766825E-08
DEBUG_STATS_RL:                Wvel (DYNAMICS) S.D.=  2.84164537902826E-05
DEBUG_STATS_RL:               Theta (DYNAMICS)  min= -1.95963016104371E+00
DEBUG_STATS_RL:               Theta (DYNAMICS)  max=  1.32396343409662E+01
DEBUG_STATS_RL:               Theta (DYNAMICS) mean=  2.41506584132490E+00
DEBUG_STATS_RL:               Theta (DYNAMICS) S.D.=  2.57443936967394E+00
DEBUG_STATS_RL:                Salt (DYNAMICS)  min=  2.76338867569799E+01
DEBUG_STATS_RL:                Salt (DYNAMICS)  max=  3.54511617149686E+01
DEBUG_STATS_RL:                Salt (DYNAMICS) mean=  3.39367496241620E+01
DEBUG_STATS_RL:                Salt (DYNAMICS) S.D.=  1.15359229307806E+00
DEBUG_STATS_RL:                  Gu (DYNAMICS)  min= -5.18639383664095E-02
DEBUG_STATS_RL:                  Gu (DYNAMICS)  max=  1.08500044377569E-01
DEBUG_STATS_RL:                  Gu (DYNAMICS) mean=  2.22152146945405E-03
DEBUG_STATS_RL:                  Gu (DYNAMICS) S.D.=  1.62488741545267E-02
DEBUG_STATS_RL:                  Gv (DYNAMICS)  min= -1.40216393355446E-01
DEBUG_STATS_RL:                  Gv (DYNAMICS)  max=  4.07135165171697E-02
DEBUG_STATS_RL:                  Gv (DYNAMICS) mean= -7.84361289825136E-03
DEBUG_STATS_RL:                  Gv (DYNAMICS) S.D.=  1.86090017356338E-02
DEBUG_STATS_RL:               GuNm1 (DYNAMICS)  min= -3.48473911940019E-07
DEBUG_STATS_RL:               GuNm1 (DYNAMICS)  max=  1.90416017948051E-07
DEBUG_STATS_RL:               GuNm1 (DYNAMICS) mean= -3.12306477013916E-09
DEBUG_STATS_RL:               GuNm1 (DYNAMICS) S.D.=  4.09417632400143E-08
DEBUG_STATS_RL:               GvNm1 (DYNAMICS)  min= -2.15359173477263E-07
DEBUG_STATS_RL:               GvNm1 (DYNAMICS)  max=  1.82438063100000E-07
DEBUG_STATS_RL:               GvNm1 (DYNAMICS) mean= -6.53519601920804E-10
DEBUG_STATS_RL:               GvNm1 (DYNAMICS) S.D.=  4.16452354556261E-08
DEBUG_STATS_RL:               GtNm1 (DYNAMICS)  min=  0.00000000000000E+00
DEBUG_STATS_RL:               GtNm1 (DYNAMICS)  max=  0.00000000000000E+00
DEBUG_STATS_RL:               GtNm1 (DYNAMICS) mean=  0.00000000000000E+00
DEBUG_STATS_RL:               GtNm1 (DYNAMICS) S.D.=  0.00000000000000E+00
DEBUG_STATS_RL:               GsNm1 (DYNAMICS)  min=  0.00000000000000E+00
DEBUG_STATS_RL:               GsNm1 (DYNAMICS)  max=  0.00000000000000E+00
DEBUG_STATS_RL:               GsNm1 (DYNAMICS) mean=  0.00000000000000E+00
DEBUG_STATS_RL:               GsNm1 (DYNAMICS) S.D.=  0.00000000000000E+00
DEBUG_STATS_RL:    cg2d_b (SOLVE_FOR_PRESSURE)  min= -7.37985604508128E+03
DEBUG_STATS_RL:    cg2d_b (SOLVE_FOR_PRESSURE)  max=  2.18366607280450E+03
DEBUG_STATS_RL:    cg2d_b (SOLVE_FOR_PRESSURE) mean=  6.68668083865972E-13
DEBUG_STATS_RL:    cg2d_b (SOLVE_FOR_PRESSURE) S.D.=  8.98963545839542E+02
 cg2d: Sum(rhs),rhsMax =   1.37251321419285E-14  1.18778339080375E+00
DEBUG_STATS_RL:    cg2d_x (SOLVE_FOR_PRESSURE)  min= -1.13929441834681E+00
DEBUG_STATS_RL:    cg2d_x (SOLVE_FOR_PRESSURE)  max=  3.20616731162172E+00
DEBUG_STATS_RL:    cg2d_x (SOLVE_FOR_PRESSURE) mean= -4.15672442270797E-02
DEBUG_STATS_RL:    cg2d_x (SOLVE_FOR_PRESSURE) S.D.=  6.51074617232319E-01
DEBUG_STATS_RL:          Uvel (THERMODYNAMICS)  min= -4.34802359621325E-02
DEBUG_STATS_RL:          Uvel (THERMODYNAMICS)  max=  9.99752242998816E-02
DEBUG_STATS_RL:          Uvel (THERMODYNAMICS) mean=  3.48264152589851E-03
DEBUG_STATS_RL:          Uvel (THERMODYNAMICS) S.D.=  1.35343125506135E-02
DEBUG_STATS_RL:          Vvel (THERMODYNAMICS)  min= -1.33439207289255E-01
DEBUG_STATS_RL:          Vvel (THERMODYNAMICS)  max=  5.60260700766977E-02
DEBUG_STATS_RL:          Vvel (THERMODYNAMICS) mean= -4.02696574873066E-03
DEBUG_STATS_RL:          Vvel (THERMODYNAMICS) S.D.=  1.80273334212813E-02
DEBUG_STATS_RL:          Wvel (THERMODYNAMICS)  min= -2.73348162229353E-04
DEBUG_STATS_RL:          Wvel (THERMODYNAMICS)  max=  3.13596923283704E-04
DEBUG_STATS_RL:          Wvel (THERMODYNAMICS) mean=  4.73709411312455E-08
DEBUG_STATS_RL:          Wvel (THERMODYNAMICS) S.D.=  2.82661454219215E-05
DEBUG_STATS_RL:         Theta (THERMODYNAMICS)  min= -1.95943609422390E+00
DEBUG_STATS_RL:         Theta (THERMODYNAMICS)  max=  1.32225113409295E+01
DEBUG_STATS_RL:         Theta (THERMODYNAMICS) mean=  2.41480286619417E+00
DEBUG_STATS_RL:         Theta (THERMODYNAMICS) S.D.=  2.57398860030337E+00
DEBUG_STATS_RL:          Salt (THERMODYNAMICS)  min=  2.76387468555707E+01
DEBUG_STATS_RL:          Salt (THERMODYNAMICS)  max=  3.54510358217953E+01
DEBUG_STATS_RL:          Salt (THERMODYNAMICS) mean=  3.39367601804939E+01
DEBUG_STATS_RL:          Salt (THERMODYNAMICS) S.D.=  1.15334890349897E+00
DEBUG_STATS_RL:         GtNm1 (THERMODYNAMICS)  min=  0.00000000000000E+00
DEBUG_STATS_RL:         GtNm1 (THERMODYNAMICS)  max=  0.00000000000000E+00
DEBUG_STATS_RL:         GtNm1 (THERMODYNAMICS) mean=  0.00000000000000E+00
DEBUG_STATS_RL:         GtNm1 (THERMODYNAMICS) S.D.=  0.00000000000000E+00
DEBUG_STATS_RL:         GsNm1 (THERMODYNAMICS)  min=  0.00000000000000E+00
DEBUG_STATS_RL:         GsNm1 (THERMODYNAMICS)  max=  0.00000000000000E+00
DEBUG_STATS_RL:         GsNm1 (THERMODYNAMICS) mean=  0.00000000000000E+00
DEBUG_STATS_RL:         GsNm1 (THERMODYNAMICS) S.D.=  0.00000000000000E+00
(PID.TID 0000.0001)  MDS_WRITE_FIELD: it,rec,kS,kL,kH=       1     9   1   1   1 file=m_sst_step.0000000001
(PID.TID 0000.0001)  MDS_READ_FIELD: opening global file: xx_atemp.effective.0000000001.data
(PID.TID 0000.0001) EXF_SET_FLD: processing field "climsss",  file: SSS_monthly.labsea1979
(PID.TID 0000.0001) EXF_SET_FLD:   myIter, count0, count1:         8      1      2
(PID.TID 0000.0001) EXF_SET_FLD:   first, changed, fac:   F   F    0.48907103825136611
(PID.TID 0000.0001) EXF_SET_FLD: processing field "uwind",  file: u10m.labsea1979
(PID.TID 0000.0001) EXF_SET_FLD:   myIter, count0, count1:         8      1      2
(PID.TID 0000.0001) EXF_SET_FLD:   first, changed, fac:   F   F    0.48907103825136611
(PID.TID 0000.0001) EXF_SET_FLD: processing field "vwind",  file: v10m.labsea1979
(PID.TID 0000.0001) EXF_SET_FLD:   myIter, count0, count1:         8      1      2
(PID.TID 0000.0001) EXF_SET_FLD:   first, changed, fac:   F   F    0.48907103825136611
(PID.TID 0000.0001) EXF_SET_FLD: processing field "atemp",  file: tair.labsea1979
(PID.TID 0000.0001) EXF_SET_FLD:   myIter, count0, count1:         8      1      2
(PID.TID 0000.0001) EXF_SET_FLD:   first, changed, fac:   F   F    0.48907103825136611
(PID.TID 0000.0001) EXF_SET_FLD: processing field "aqh",  file: qa.labsea1979
(PID.TID 0000.0001) EXF_SET_FLD:   myIter, count0, count1:         8      1      2
(PID.TID 0000.0001) EXF_SET_FLD:   first, changed, fac:   F   F    0.48907103825136611
(PID.TID 0000.0001) EXF_SET_FLD: processing field "precip",  file: prate.labsea1979
(PID.TID 0000.0001) EXF_SET_FLD:   myIter, count0, count1:         8      1      2
(PID.TID 0000.0001) EXF_SET_FLD:   first, changed, fac:   F   F    0.48907103825136611
(PID.TID 0000.0001) EXF_SET_FLD: processing field "swdown",  file: fsh.labsea1979
(PID.TID 0000.0001) EXF_SET_FLD:   myIter, count0, count1:         8      1      2
(PID.TID 0000.0001) EXF_SET_FLD:   first, changed, fac:   F   F    0.48907103825136611
(PID.TID 0000.0001) EXF_SET_FLD: processing field "lwdown",  file: flo.labsea1979
(PID.TID 0000.0001) EXF_SET_FLD:   myIter, count0, count1:         8      1      2
(PID.TID 0000.0001) EXF_SET_FLD:   first, changed, fac:   F   F    0.48907103825136611
DEBUG_STATS_RL: Uice pre  iter (SEAICE_LSR  1)  min= -1.95687208100084E-02
DEBUG_STATS_RL: Uice pre  iter (SEAICE_LSR  1)  max=  2.56695252608154E-01
DEBUG_STATS_RL: Uice pre  iter (SEAICE_LSR  1) mean=  6.10102626008509E-02
DEBUG_STATS_RL: Uice pre  iter (SEAICE_LSR  1) S.D.=  7.26515133443169E-02
DEBUG_STATS_RL: Vice pre  iter (SEAICE_LSR  1)  min= -1.74351841640004E-01
DEBUG_STATS_RL: Vice pre  iter (SEAICE_LSR  1)  max=  6.17815719868611E-02
DEBUG_STATS_RL: Vice pre  iter (SEAICE_LSR  1) mean= -5.34332922103289E-02
DEBUG_STATS_RL: Vice pre  iter (SEAICE_LSR  1) S.D.=  5.91879685811255E-02
DEBUG_STATS_RL: Uice pre  iter (SEAICE_LSR  2)  min= -2.10631196463112E-02
DEBUG_STATS_RL: Uice pre  iter (SEAICE_LSR  2)  max=  2.47741110498679E-01
DEBUG_STATS_RL: Uice pre  iter (SEAICE_LSR  2) mean=  5.58563099525310E-02
DEBUG_STATS_RL: Uice pre  iter (SEAICE_LSR  2) S.D.=  6.83562873807177E-02
DEBUG_STATS_RL: Vice pre  iter (SEAICE_LSR  2)  min= -1.71270231909312E-01
DEBUG_STATS_RL: Vice pre  iter (SEAICE_LSR  2)  max=  5.00408736690814E-02
DEBUG_STATS_RL: Vice pre  iter (SEAICE_LSR  2) mean= -5.35471708937785E-02
DEBUG_STATS_RL: Vice pre  iter (SEAICE_LSR  2) S.D.=  5.75117440525006E-02
DEBUG_STATS_RL:                EtaN (DYNAMICS)  min= -1.16069768363300E-01
DEBUG_STATS_RL:                EtaN (DYNAMICS)  max=  3.26639972250470E-01
DEBUG_STATS_RL:                EtaN (DYNAMICS) mean= -4.23481440024855E-03
DEBUG_STATS_RL:                EtaN (DYNAMICS) S.D.=  6.63305979494191E-02
DEBUG_STATS_RL:                Uvel (DYNAMICS)  min= -4.34802359621325E-02
DEBUG_STATS_RL:                Uvel (DYNAMICS)  max=  9.99752242998816E-02
DEBUG_STATS_RL:                Uvel (DYNAMICS) mean=  3.48264152589851E-03
DEBUG_STATS_RL:                Uvel (DYNAMICS) S.D.=  1.35343125506135E-02
DEBUG_STATS_RL:                Vvel (DYNAMICS)  min= -1.33439207289255E-01
DEBUG_STATS_RL:                Vvel (DYNAMICS)  max=  5.60260700766977E-02
DEBUG_STATS_RL:                Vvel (DYNAMICS) mean= -4.02696574873066E-03
DEBUG_STATS_RL:                Vvel (DYNAMICS) S.D.=  1.80273334212813E-02
DEBUG_STATS_RL:                Wvel (DYNAMICS)  min= -2.73348162229353E-04
DEBUG_STATS_RL:                Wvel (DYNAMICS)  max=  3.13596923283704E-04
DEBUG_STATS_RL:                Wvel (DYNAMICS) mean=  4.73709411312455E-08
DEBUG_STATS_RL:                Wvel (DYNAMICS) S.D.=  2.82661454219215E-05
DEBUG_STATS_RL:               Theta (DYNAMICS)  min= -1.95943609422390E+00
DEBUG_STATS_RL:               Theta (DYNAMICS)  max=  1.32225113409295E+01
DEBUG_STATS_RL:               Theta (DYNAMICS) mean=  2.41480286619417E+00
DEBUG_STATS_RL:               Theta (DYNAMICS) S.D.=  2.57398860030337E+00
DEBUG_STATS_RL:                Salt (DYNAMICS)  min=  2.76387468555707E+01
DEBUG_STATS_RL:                Salt (DYNAMICS)  max=  3.54510358217953E+01
DEBUG_STATS_RL:                Salt (DYNAMICS) mean=  3.39367601804939E+01
DEBUG_STATS_RL:                Salt (DYNAMICS) S.D.=  1.15334890349897E+00
DEBUG_STATS_RL:                  Gu (DYNAMICS)  min= -5.98368153075299E-02
DEBUG_STATS_RL:                  Gu (DYNAMICS)  max=  9.68873121299261E-02
DEBUG_STATS_RL:                  Gu (DYNAMICS) mean=  1.30194972947433E-03
DEBUG_STATS_RL:                  Gu (DYNAMICS) S.D.=  1.61566615235356E-02
DEBUG_STATS_RL:                  Gv (DYNAMICS)  min= -1.36271217267994E-01
DEBUG_STATS_RL:                  Gv (DYNAMICS)  max=  3.83573237348516E-02
DEBUG_STATS_RL:                  Gv (DYNAMICS) mean= -7.71950831957874E-03
DEBUG_STATS_RL:                  Gv (DYNAMICS) S.D.=  1.77533563667908E-02
DEBUG_STATS_RL:               GuNm1 (DYNAMICS)  min= -3.40955168137042E-07
DEBUG_STATS_RL:               GuNm1 (DYNAMICS)  max=  1.82641400821313E-07
DEBUG_STATS_RL:               GuNm1 (DYNAMICS) mean= -2.79196714442515E-09
DEBUG_STATS_RL:               GuNm1 (DYNAMICS) S.D.=  4.07453533304228E-08
DEBUG_STATS_RL:               GvNm1 (DYNAMICS)  min= -2.14559263714316E-07
DEBUG_STATS_RL:               GvNm1 (DYNAMICS)  max=  1.94148824775169E-07
DEBUG_STATS_RL:               GvNm1 (DYNAMICS) mean= -4.04169206801419E-10
DEBUG_STATS_RL:               GvNm1 (DYNAMICS) S.D.=  4.19222729579415E-08
DEBUG_STATS_RL:               GtNm1 (DYNAMICS)  min=  0.00000000000000E+00
DEBUG_STATS_RL:               GtNm1 (DYNAMICS)  max=  0.00000000000000E+00
DEBUG_STATS_RL:               GtNm1 (DYNAMICS) mean=  0.00000000000000E+00
DEBUG_STATS_RL:               GtNm1 (DYNAMICS) S.D.=  0.00000000000000E+00
DEBUG_STATS_RL:               GsNm1 (DYNAMICS)  min=  0.00000000000000E+00
DEBUG_STATS_RL:               GsNm1 (DYNAMICS)  max=  0.00000000000000E+00
DEBUG_STATS_RL:               GsNm1 (DYNAMICS) mean=  0.00000000000000E+00
DEBUG_STATS_RL:               GsNm1 (DYNAMICS) S.D.=  0.00000000000000E+00
DEBUG_STATS_RL:    cg2d_b (SOLVE_FOR_PRESSURE)  min= -7.29975929937778E+03
DEBUG_STATS_RL:    cg2d_b (SOLVE_FOR_PRESSURE)  max=  2.19478299507116E+03
DEBUG_STATS_RL:    cg2d_b (SOLVE_FOR_PRESSURE) mean= -3.52429196937010E-13
DEBUG_STATS_RL:    cg2d_b (SOLVE_FOR_PRESSURE) S.D.=  8.94146290227664E+02
 cg2d: Sum(rhs),rhsMax =  -6.44276298977786E-15  1.17489186776822E+00
DEBUG_STATS_RL:    cg2d_x (SOLVE_FOR_PRESSURE)  min= -1.08771127617347E+00
DEBUG_STATS_RL:    cg2d_x (SOLVE_FOR_PRESSURE)  max=  3.12128519797298E+00
DEBUG_STATS_RL:    cg2d_x (SOLVE_FOR_PRESSURE) mean= -4.19588396851814E-02
DEBUG_STATS_RL:    cg2d_x (SOLVE_FOR_PRESSURE) S.D.=  6.20262122263046E-01
DEBUG_STATS_RL:          Uvel (THERMODYNAMICS)  min= -5.12375198243516E-02
DEBUG_STATS_RL:          Uvel (THERMODYNAMICS)  max=  8.84896388076349E-02
DEBUG_STATS_RL:          Uvel (THERMODYNAMICS) mean=  2.55769138538131E-03
DEBUG_STATS_RL:          Uvel (THERMODYNAMICS) S.D.=  1.29064693910496E-02
DEBUG_STATS_RL:          Vvel (THERMODYNAMICS)  min= -1.29344604199479E-01
DEBUG_STATS_RL:          Vvel (THERMODYNAMICS)  max=  4.58633296186263E-02
DEBUG_STATS_RL:          Vvel (THERMODYNAMICS) mean= -4.14107843006435E-03
DEBUG_STATS_RL:          Vvel (THERMODYNAMICS) S.D.=  1.66082836245799E-02
DEBUG_STATS_RL:          Wvel (THERMODYNAMICS)  min= -2.60848991809585E-04
DEBUG_STATS_RL:          Wvel (THERMODYNAMICS)  max=  2.85731299794391E-04
DEBUG_STATS_RL:          Wvel (THERMODYNAMICS) mean=  1.36793666178081E-07
DEBUG_STATS_RL:          Wvel (THERMODYNAMICS) S.D.=  2.70580054557626E-05
DEBUG_STATS_RL:         Theta (THERMODYNAMICS)  min= -1.95932886747260E+00
DEBUG_STATS_RL:         Theta (THERMODYNAMICS)  max=  1.32010303660582E+01
DEBUG_STATS_RL:         Theta (THERMODYNAMICS) mean=  2.41452315045422E+00
DEBUG_STATS_RL:         Theta (THERMODYNAMICS) S.D.=  2.57350774067654E+00
DEBUG_STATS_RL:          Salt (THERMODYNAMICS)  min=  2.76435505129419E+01
DEBUG_STATS_RL:          Salt (THERMODYNAMICS)  max=  3.54508660670958E+01
DEBUG_STATS_RL:          Salt (THERMODYNAMICS) mean=  3.39367749828866E+01
DEBUG_STATS_RL:          Salt (THERMODYNAMICS) S.D.=  1.15309738582405E+00
DEBUG_STATS_RL:         GtNm1 (THERMODYNAMICS)  min=  0.00000000000000E+00
DEBUG_STATS_RL:         GtNm1 (THERMODYNAMICS)  max=  0.00000000000000E+00
DEBUG_STATS_RL:         GtNm1 (THERMODYNAMICS) mean=  0.00000000000000E+00
DEBUG_STATS_RL:         GtNm1 (THERMODYNAMICS) S.D.=  0.00000000000000E+00
DEBUG_STATS_RL:         GsNm1 (THERMODYNAMICS)  min=  0.00000000000000E+00
DEBUG_STATS_RL:         GsNm1 (THERMODYNAMICS)  max=  0.00000000000000E+00
DEBUG_STATS_RL:         GsNm1 (THERMODYNAMICS) mean=  0.00000000000000E+00
DEBUG_STATS_RL:         GsNm1 (THERMODYNAMICS) S.D.=  0.00000000000000E+00
(PID.TID 0000.0001) Did not write pickup because writePickupAtEnd = FALSE
(PID.TID 0000.0001)  MDS_WRITE_FIELD: it,rec,kS,kL,kH=       1    10   1   1   1 file=m_sst_step.0000000001
(PID.TID 0000.0001) gencost # 03
(PID.TID 0000.0001)  MDS_READ_FIELD: opening global file: sigma_sst.bin
(PID.TID 0000.0001)  MDS_READ_FIELD: opening global file: m_sst_step.0000000001.data
(PID.TID 0000.0001)  MDS_READ_FIELD: opening global file: labsea_SST_fields_t10
(PID.TID 0000.0001)  MDS_WRITE_FIELD: it,rec,kS,kL,kH=       1     1   1   1   1 file=misfit_sst
(PID.TID 0000.0001)  MDS_READ_FIELD: opening global file: sigma_sst.bin
(PID.TID 0000.0001)  MDS_READ_FIELD: opening global file: m_sst_step.0000000001.data
(PID.TID 0000.0001)  MDS_READ_FIELD: opening global file: labsea_SST_fields_t10
(PID.TID 0000.0001)  MDS_WRITE_FIELD: it,rec,kS,kL,kH=       1     2   1   1   1 file=misfit_sst
(PID.TID 0000.0001)  MDS_READ_FIELD: opening global file: sigma_sst.bin
(PID.TID 0000.0001)  MDS_READ_FIELD: opening global file: m_sst_step.0000000001.data
(PID.TID 0000.0001)  MDS_READ_FIELD: opening global file: labsea_SST_fields_t10
(PID.TID 0000.0001)  MDS_WRITE_FIELD: it,rec,kS,kL,kH=       1     3   1   1   1 file=misfit_sst
(PID.TID 0000.0001)  MDS_READ_FIELD: opening global file: sigma_sst.bin
(PID.TID 0000.0001)  MDS_READ_FIELD: opening global file: m_sst_step.0000000001.data
(PID.TID 0000.0001)  MDS_READ_FIELD: opening global file: labsea_SST_fields_t10
(PID.TID 0000.0001)  MDS_WRITE_FIELD: it,rec,kS,kL,kH=       1     4   1   1   1 file=misfit_sst
(PID.TID 0000.0001)  MDS_READ_FIELD: opening global file: sigma_sst.bin
(PID.TID 0000.0001)  MDS_READ_FIELD: opening global file: m_sst_step.0000000001.data
(PID.TID 0000.0001)  MDS_READ_FIELD: opening global file: labsea_SST_fields_t10
(PID.TID 0000.0001)  MDS_WRITE_FIELD: it,rec,kS,kL,kH=       1     5   1   1   1 file=misfit_sst
(PID.TID 0000.0001)  MDS_READ_FIELD: opening global file: sigma_sst.bin
(PID.TID 0000.0001)  MDS_READ_FIELD: opening global file: m_sst_step.0000000001.data
(PID.TID 0000.0001)  MDS_READ_FIELD: opening global file: labsea_SST_fields_t10
(PID.TID 0000.0001)  MDS_WRITE_FIELD: it,rec,kS,kL,kH=       1     6   1   1   1 file=misfit_sst
(PID.TID 0000.0001)  MDS_READ_FIELD: opening global file: sigma_sst.bin
(PID.TID 0000.0001)  MDS_READ_FIELD: opening global file: m_sst_step.0000000001.data
(PID.TID 0000.0001)  MDS_READ_FIELD: opening global file: labsea_SST_fields_t10
(PID.TID 0000.0001)  MDS_WRITE_FIELD: it,rec,kS,kL,kH=       1     7   1   1   1 file=misfit_sst
(PID.TID 0000.0001)  MDS_READ_FIELD: opening global file: sigma_sst.bin
(PID.TID 0000.0001)  MDS_READ_FIELD: opening global file: m_sst_step.0000000001.data
(PID.TID 0000.0001)  MDS_READ_FIELD: opening global file: labsea_SST_fields_t10
(PID.TID 0000.0001)  MDS_WRITE_FIELD: it,rec,kS,kL,kH=       1     8   1   1   1 file=misfit_sst
(PID.TID 0000.0001)  MDS_READ_FIELD: opening global file: sigma_sst.bin
(PID.TID 0000.0001)  MDS_READ_FIELD: opening global file: m_sst_step.0000000001.data
(PID.TID 0000.0001)  MDS_READ_FIELD: opening global file: labsea_SST_fields_t10
(PID.TID 0000.0001)  MDS_WRITE_FIELD: it,rec,kS,kL,kH=       1     9   1   1   1 file=misfit_sst
(PID.TID 0000.0001)  MDS_READ_FIELD: opening global file: sigma_sst.bin
(PID.TID 0000.0001)  MDS_READ_FIELD: opening global file: m_sst_step.0000000001.data
(PID.TID 0000.0001)  MDS_READ_FIELD: opening global file: labsea_SST_fields_t10
(PID.TID 0000.0001)  MDS_WRITE_FIELD: it,rec,kS,kL,kH=       1    10   1   1   1 file=misfit_sst
(PID.TID 0000.0001)  MDS_READ_FIELD: opening global file: xx_atemp.0000000001.data
(PID.TID 0000.0001)  MDS_READ_FIELD: opening global file: xx_atemp.0000000001.data
(PID.TID 0000.0001)  MDS_READ_FIELD: opening global file: xx_atemp.0000000001.data
(PID.TID 0000.0001)  MDS_READ_FIELD: opening global file: xx_atemp.0000000001.data
(PID.TID 0000.0001)  MDS_READ_FIELD: opening global file: xx_atemp.0000000001.data
(PID.TID 0000.0001)  MDS_READ_FIELD: opening global file: xx_atemp.0000000001.data
(PID.TID 0000.0001)  MDS_READ_FIELD: opening global file: xx_atemp.0000000001.data
(PID.TID 0000.0001)  MDS_READ_FIELD: opening global file: xx_atemp.0000000001.data
(PID.TID 0000.0001)  MDS_READ_FIELD: opening global file: xx_atemp.0000000001.data
(PID.TID 0000.0001)  MDS_READ_FIELD: opening global file: xx_atemp.0000000001.data
(PID.TID 0000.0001)  MDS_READ_FIELD: opening global file: xx_atemp.0000000001.data
 --> f_ice     = 0.000000000000000D+00
 --> f_smrarea = 0.000000000000000D+00
 --> f_smrarea = 0.000000000000000D+00
 --> f_smrarea = 0.000000000000000D+00
(PID.TID 0000.0001)  --> f_gencost = 0.527453128215447D+04 3
(PID.TID 0000.0001)  --> f_gentim2d = 0.243375020010000D+03 1
(PID.TID 0000.0001)  --> fc               = 0.527453128215447D+04
(PID.TID 0000.0001)  cost_Final: final cost function =  0.527453128215447D+04
(PID.TID 0000.0001) 
(PID.TID 0000.0001)              cost function evaluation finished.
(PID.TID 0000.0001) 
(PID.TID 0000.0001)   early fc =  0.000000000000000D+00
(PID.TID 0000.0001)   local fc =  0.527453128215447D+04
(PID.TID 0000.0001)  global fc =  0.527453128215447D+04
(PID.TID 0000.0001) grdchk perturb(+)fc: fcpertplus  =  5.27453128215447E+03
(PID.TID 0000.0001)  MDS_READ_FIELD: opening global file: xx_atemp.0000000001.data
(PID.TID 0000.0001)  MDS_WRITE_FIELD: it,rec,kS,kL,kH=       1     1   1   1   1 file=xx_atemp.0000000001
(PID.TID 0000.0001)  MDS_READ_FIELD: opening global file: xx_atemp.0000000001.data
(PID.TID 0000.0001)  MDS_WRITE_FIELD: it,rec,kS,kL,kH=       1     1   1   1   1 file=xx_atemp.0000000001
(PID.TID 0000.0001)  MDS_READ_FIELD: opening global file: LevCli_temp.labsea1979
(PID.TID 0000.0001)  MDS_READ_FIELD: opening global file: LevCli_salt.labsea1979
(PID.TID 0000.0001) Start initial hydrostatic pressure computation
(PID.TID 0000.0001) Pressure is predetermined for buoyancyRelation OCEANIC
(PID.TID 0000.0001) 
(PID.TID 0000.0001) CTRL_INIT_REC: Getting record indices for xx_atemp
(PID.TID 0000.0001) CTRL_INIT_REC: Record indices for xx_atemp:
(PID.TID 0000.0001) CTRL_INIT_REC: startrec =          1, endrec =         11
(PID.TID 0000.0001)  MDS_READ_FIELD: opening global file: xx_atemp.0000000001.data
(PID.TID 0000.0001)  MDS_WRITE_FIELD: it,rec,kS,kL,kH=       1     1   1   1   1 file=xx_atemp.effective.0000000001
(PID.TID 0000.0001)  MDS_READ_FIELD: opening global file: xx_atemp.0000000001.data
(PID.TID 0000.0001)  MDS_WRITE_FIELD: it,rec,kS,kL,kH=       1     2   1   1   1 file=xx_atemp.effective.0000000001
(PID.TID 0000.0001)  MDS_READ_FIELD: opening global file: xx_atemp.0000000001.data
(PID.TID 0000.0001)  MDS_WRITE_FIELD: it,rec,kS,kL,kH=       1     3   1   1   1 file=xx_atemp.effective.0000000001
(PID.TID 0000.0001)  MDS_READ_FIELD: opening global file: xx_atemp.0000000001.data
(PID.TID 0000.0001)  MDS_WRITE_FIELD: it,rec,kS,kL,kH=       1     4   1   1   1 file=xx_atemp.effective.0000000001
(PID.TID 0000.0001)  MDS_READ_FIELD: opening global file: xx_atemp.0000000001.data
(PID.TID 0000.0001)  MDS_WRITE_FIELD: it,rec,kS,kL,kH=       1     5   1   1   1 file=xx_atemp.effective.0000000001
(PID.TID 0000.0001)  MDS_READ_FIELD: opening global file: xx_atemp.0000000001.data
(PID.TID 0000.0001)  MDS_WRITE_FIELD: it,rec,kS,kL,kH=       1     6   1   1   1 file=xx_atemp.effective.0000000001
(PID.TID 0000.0001)  MDS_READ_FIELD: opening global file: xx_atemp.0000000001.data
(PID.TID 0000.0001)  MDS_WRITE_FIELD: it,rec,kS,kL,kH=       1     7   1   1   1 file=xx_atemp.effective.0000000001
(PID.TID 0000.0001)  MDS_READ_FIELD: opening global file: xx_atemp.0000000001.data
(PID.TID 0000.0001)  MDS_WRITE_FIELD: it,rec,kS,kL,kH=       1     8   1   1   1 file=xx_atemp.effective.0000000001
(PID.TID 0000.0001)  MDS_READ_FIELD: opening global file: xx_atemp.0000000001.data
(PID.TID 0000.0001)  MDS_WRITE_FIELD: it,rec,kS,kL,kH=       1     9   1   1   1 file=xx_atemp.effective.0000000001
(PID.TID 0000.0001)  MDS_READ_FIELD: opening global file: xx_atemp.0000000001.data
(PID.TID 0000.0001)  MDS_WRITE_FIELD: it,rec,kS,kL,kH=       1    10   1   1   1 file=xx_atemp.effective.0000000001
(PID.TID 0000.0001)  MDS_READ_FIELD: opening global file: xx_atemp.0000000001.data
(PID.TID 0000.0001)  MDS_WRITE_FIELD: it,rec,kS,kL,kH=       1    11   1   1   1 file=xx_atemp.effective.0000000001
(PID.TID 0000.0001)  MDS_READ_FIELD: opening global file: xx_atemp.effective.0000000001.data
(PID.TID 0000.0001)  MDS_READ_FIELD: opening global file: ones_64b.bin
(PID.TID 0000.0001)  MDS_WRITE_FIELD: it,rec,kS,kL,kH=       1     1   1   1   1 file=xx_atemp.effective.0000000001
(PID.TID 0000.0001)  MDS_READ_FIELD: opening global file: xx_atemp.effective.0000000001.data
(PID.TID 0000.0001)  MDS_READ_FIELD: opening global file: ones_64b.bin
(PID.TID 0000.0001)  MDS_WRITE_FIELD: it,rec,kS,kL,kH=       1     2   1   1   1 file=xx_atemp.effective.0000000001
(PID.TID 0000.0001)  MDS_READ_FIELD: opening global file: xx_atemp.effective.0000000001.data
(PID.TID 0000.0001)  MDS_READ_FIELD: opening global file: ones_64b.bin
(PID.TID 0000.0001)  MDS_WRITE_FIELD: it,rec,kS,kL,kH=       1     3   1   1   1 file=xx_atemp.effective.0000000001
(PID.TID 0000.0001)  MDS_READ_FIELD: opening global file: xx_atemp.effective.0000000001.data
(PID.TID 0000.0001)  MDS_READ_FIELD: opening global file: ones_64b.bin
(PID.TID 0000.0001)  MDS_WRITE_FIELD: it,rec,kS,kL,kH=       1     4   1   1   1 file=xx_atemp.effective.0000000001
(PID.TID 0000.0001)  MDS_READ_FIELD: opening global file: xx_atemp.effective.0000000001.data
(PID.TID 0000.0001)  MDS_READ_FIELD: opening global file: ones_64b.bin
(PID.TID 0000.0001)  MDS_WRITE_FIELD: it,rec,kS,kL,kH=       1     5   1   1   1 file=xx_atemp.effective.0000000001
(PID.TID 0000.0001)  MDS_READ_FIELD: opening global file: xx_atemp.effective.0000000001.data
(PID.TID 0000.0001)  MDS_READ_FIELD: opening global file: ones_64b.bin
(PID.TID 0000.0001)  MDS_WRITE_FIELD: it,rec,kS,kL,kH=       1     6   1   1   1 file=xx_atemp.effective.0000000001
(PID.TID 0000.0001)  MDS_READ_FIELD: opening global file: xx_atemp.effective.0000000001.data
(PID.TID 0000.0001)  MDS_READ_FIELD: opening global file: ones_64b.bin
(PID.TID 0000.0001)  MDS_WRITE_FIELD: it,rec,kS,kL,kH=       1     7   1   1   1 file=xx_atemp.effective.0000000001
(PID.TID 0000.0001)  MDS_READ_FIELD: opening global file: xx_atemp.effective.0000000001.data
(PID.TID 0000.0001)  MDS_READ_FIELD: opening global file: ones_64b.bin
(PID.TID 0000.0001)  MDS_WRITE_FIELD: it,rec,kS,kL,kH=       1     8   1   1   1 file=xx_atemp.effective.0000000001
(PID.TID 0000.0001)  MDS_READ_FIELD: opening global file: xx_atemp.effective.0000000001.data
(PID.TID 0000.0001)  MDS_READ_FIELD: opening global file: ones_64b.bin
(PID.TID 0000.0001)  MDS_WRITE_FIELD: it,rec,kS,kL,kH=       1     9   1   1   1 file=xx_atemp.effective.0000000001
(PID.TID 0000.0001)  MDS_READ_FIELD: opening global file: xx_atemp.effective.0000000001.data
(PID.TID 0000.0001)  MDS_READ_FIELD: opening global file: ones_64b.bin
(PID.TID 0000.0001)  MDS_WRITE_FIELD: it,rec,kS,kL,kH=       1    10   1   1   1 file=xx_atemp.effective.0000000001
(PID.TID 0000.0001)  MDS_READ_FIELD: opening global file: xx_atemp.effective.0000000001.data
(PID.TID 0000.0001)  MDS_READ_FIELD: opening global file: ones_64b.bin
(PID.TID 0000.0001)  MDS_WRITE_FIELD: it,rec,kS,kL,kH=       1    11   1   1   1 file=xx_atemp.effective.0000000001
(PID.TID 0000.0001) // =======================================================
(PID.TID 0000.0001) // Model current state
(PID.TID 0000.0001) // =======================================================
(PID.TID 0000.0001) 
(PID.TID 0000.0001)  MDS_WRITE_FIELD: it,rec,kS,kL,kH=       1     1   1   1   1 file=m_sst_step.0000000001
(PID.TID 0000.0001)  MDS_READ_FIELD: opening global file: xx_atemp.effective.0000000001.data
(PID.TID 0000.0001)  MDS_READ_FIELD: opening global file: xx_atemp.effective.0000000001.data
(PID.TID 0000.0001) EXF_SET_FLD: processing field "climsss",  file: SSS_monthly.labsea1979
(PID.TID 0000.0001) EXF_SET_FLD:   myIter, count0, count1:         0      1      2
(PID.TID 0000.0001) EXF_SET_FLD:   first, changed, fac:   T   F    0.50000000000000000
(PID.TID 0000.0001) EXF_SET_FLD: field "climsss", it=         0, loading rec=     1
(PID.TID 0000.0001) EXF_SET_FLD:   from file: "SSS_monthly.labsea1979"
(PID.TID 0000.0001)  MDS_READ_FIELD: opening global file: SSS_monthly.labsea1979
(PID.TID 0000.0001) EXF_SET_FLD: field "climsss", it=         0, loading rec=     2
(PID.TID 0000.0001) EXF_SET_FLD:   from file: "SSS_monthly.labsea1979"
(PID.TID 0000.0001)  MDS_READ_FIELD: opening global file: SSS_monthly.labsea1979
(PID.TID 0000.0001) EXF_SET_FLD: processing field "uwind",  file: u10m.labsea1979
(PID.TID 0000.0001) EXF_SET_FLD:   myIter, count0, count1:         0      1      2
(PID.TID 0000.0001) EXF_SET_FLD:   first, changed, fac:   T   F    0.50000000000000000
(PID.TID 0000.0001) EXF_SET_FLD: field "uwind", it=         0, loading rec=     1
(PID.TID 0000.0001) EXF_SET_FLD:   from file: "u10m.labsea1979"
(PID.TID 0000.0001)  MDS_READ_FIELD: opening global file: u10m.labsea1979
(PID.TID 0000.0001) EXF_SET_FLD: field "uwind", it=         0, loading rec=     2
(PID.TID 0000.0001) EXF_SET_FLD:   from file: "u10m.labsea1979"
(PID.TID 0000.0001)  MDS_READ_FIELD: opening global file: u10m.labsea1979
(PID.TID 0000.0001) EXF_SET_FLD: processing field "vwind",  file: v10m.labsea1979
(PID.TID 0000.0001) EXF_SET_FLD:   myIter, count0, count1:         0      1      2
(PID.TID 0000.0001) EXF_SET_FLD:   first, changed, fac:   T   F    0.50000000000000000
(PID.TID 0000.0001) EXF_SET_FLD: field "vwind", it=         0, loading rec=     1
(PID.TID 0000.0001) EXF_SET_FLD:   from file: "v10m.labsea1979"
(PID.TID 0000.0001)  MDS_READ_FIELD: opening global file: v10m.labsea1979
(PID.TID 0000.0001) EXF_SET_FLD: field "vwind", it=         0, loading rec=     2
(PID.TID 0000.0001) EXF_SET_FLD:   from file: "v10m.labsea1979"
(PID.TID 0000.0001)  MDS_READ_FIELD: opening global file: v10m.labsea1979
(PID.TID 0000.0001) EXF_SET_FLD: processing field "atemp",  file: tair.labsea1979
(PID.TID 0000.0001) EXF_SET_FLD:   myIter, count0, count1:         0      1      2
(PID.TID 0000.0001) EXF_SET_FLD:   first, changed, fac:   T   F    0.50000000000000000
(PID.TID 0000.0001) EXF_SET_FLD: field "atemp", it=         0, loading rec=     1
(PID.TID 0000.0001) EXF_SET_FLD:   from file: "tair.labsea1979"
(PID.TID 0000.0001)  MDS_READ_FIELD: opening global file: tair.labsea1979
(PID.TID 0000.0001) EXF_SET_FLD: field "atemp", it=         0, loading rec=     2
(PID.TID 0000.0001) EXF_SET_FLD:   from file: "tair.labsea1979"
(PID.TID 0000.0001)  MDS_READ_FIELD: opening global file: tair.labsea1979
(PID.TID 0000.0001) EXF_SET_FLD: processing field "aqh",  file: qa.labsea1979
(PID.TID 0000.0001) EXF_SET_FLD:   myIter, count0, count1:         0      1      2
(PID.TID 0000.0001) EXF_SET_FLD:   first, changed, fac:   T   F    0.50000000000000000
(PID.TID 0000.0001) EXF_SET_FLD: field "aqh", it=         0, loading rec=     1
(PID.TID 0000.0001) EXF_SET_FLD:   from file: "qa.labsea1979"
(PID.TID 0000.0001)  MDS_READ_FIELD: opening global file: qa.labsea1979
(PID.TID 0000.0001) EXF_SET_FLD: field "aqh", it=         0, loading rec=     2
(PID.TID 0000.0001) EXF_SET_FLD:   from file: "qa.labsea1979"
(PID.TID 0000.0001)  MDS_READ_FIELD: opening global file: qa.labsea1979
(PID.TID 0000.0001) EXF_SET_FLD: processing field "precip",  file: prate.labsea1979
(PID.TID 0000.0001) EXF_SET_FLD:   myIter, count0, count1:         0      1      2
(PID.TID 0000.0001) EXF_SET_FLD:   first, changed, fac:   T   F    0.50000000000000000
(PID.TID 0000.0001) EXF_SET_FLD: field "precip", it=         0, loading rec=     1
(PID.TID 0000.0001) EXF_SET_FLD:   from file: "prate.labsea1979"
(PID.TID 0000.0001)  MDS_READ_FIELD: opening global file: prate.labsea1979
(PID.TID 0000.0001) EXF_SET_FLD: field "precip", it=         0, loading rec=     2
(PID.TID 0000.0001) EXF_SET_FLD:   from file: "prate.labsea1979"
(PID.TID 0000.0001)  MDS_READ_FIELD: opening global file: prate.labsea1979
(PID.TID 0000.0001) EXF_SET_FLD: processing field "swdown",  file: fsh.labsea1979
(PID.TID 0000.0001) EXF_SET_FLD:   myIter, count0, count1:         0      1      2
(PID.TID 0000.0001) EXF_SET_FLD:   first, changed, fac:   T   F    0.50000000000000000
(PID.TID 0000.0001) EXF_SET_FLD: field "swdown", it=         0, loading rec=     1
(PID.TID 0000.0001) EXF_SET_FLD:   from file: "fsh.labsea1979"
(PID.TID 0000.0001)  MDS_READ_FIELD: opening global file: fsh.labsea1979
(PID.TID 0000.0001) EXF_SET_FLD: field "swdown", it=         0, loading rec=     2
(PID.TID 0000.0001) EXF_SET_FLD:   from file: "fsh.labsea1979"
(PID.TID 0000.0001)  MDS_READ_FIELD: opening global file: fsh.labsea1979
(PID.TID 0000.0001) EXF_SET_FLD: processing field "lwdown",  file: flo.labsea1979
(PID.TID 0000.0001) EXF_SET_FLD:   myIter, count0, count1:         0      1      2
(PID.TID 0000.0001) EXF_SET_FLD:   first, changed, fac:   T   F    0.50000000000000000
(PID.TID 0000.0001) EXF_SET_FLD: field "lwdown", it=         0, loading rec=     1
(PID.TID 0000.0001) EXF_SET_FLD:   from file: "flo.labsea1979"
(PID.TID 0000.0001)  MDS_READ_FIELD: opening global file: flo.labsea1979
(PID.TID 0000.0001) EXF_SET_FLD: field "lwdown", it=         0, loading rec=     2
(PID.TID 0000.0001) EXF_SET_FLD:   from file: "flo.labsea1979"
(PID.TID 0000.0001)  MDS_READ_FIELD: opening global file: flo.labsea1979
DEBUG_STATS_RL: Uice pre  iter (SEAICE_LSR  1)  min=  0.00000000000000E+00
DEBUG_STATS_RL: Uice pre  iter (SEAICE_LSR  1)  max=  0.00000000000000E+00
DEBUG_STATS_RL: Uice pre  iter (SEAICE_LSR  1) mean=  0.00000000000000E+00
DEBUG_STATS_RL: Uice pre  iter (SEAICE_LSR  1) S.D.=  0.00000000000000E+00
DEBUG_STATS_RL: Vice pre  iter (SEAICE_LSR  1)  min=  0.00000000000000E+00
DEBUG_STATS_RL: Vice pre  iter (SEAICE_LSR  1)  max=  0.00000000000000E+00
DEBUG_STATS_RL: Vice pre  iter (SEAICE_LSR  1) mean=  0.00000000000000E+00
DEBUG_STATS_RL: Vice pre  iter (SEAICE_LSR  1) S.D.=  0.00000000000000E+00
DEBUG_STATS_RL: Uice pre  iter (SEAICE_LSR  2)  min= -4.74478293331770E-04
DEBUG_STATS_RL: Uice pre  iter (SEAICE_LSR  2)  max=  5.19863184318560E-03
DEBUG_STATS_RL: Uice pre  iter (SEAICE_LSR  2) mean=  1.15969103043184E-03
DEBUG_STATS_RL: Uice pre  iter (SEAICE_LSR  2) S.D.=  1.37050304765703E-03
DEBUG_STATS_RL: Vice pre  iter (SEAICE_LSR  2)  min= -2.82028703630720E-03
DEBUG_STATS_RL: Vice pre  iter (SEAICE_LSR  2)  max=  8.55909305417855E-04
DEBUG_STATS_RL: Vice pre  iter (SEAICE_LSR  2) mean= -7.32602707228794E-04
DEBUG_STATS_RL: Vice pre  iter (SEAICE_LSR  2) S.D.=  9.65742386214621E-04
DEBUG_STATS_RL:                EtaN (DYNAMICS)  min=  0.00000000000000E+00
DEBUG_STATS_RL:                EtaN (DYNAMICS)  max=  0.00000000000000E+00
DEBUG_STATS_RL:                EtaN (DYNAMICS) mean=  0.00000000000000E+00
DEBUG_STATS_RL:                EtaN (DYNAMICS) S.D.=  0.00000000000000E+00
DEBUG_STATS_RL:                Uvel (DYNAMICS)  min=  0.00000000000000E+00
DEBUG_STATS_RL:                Uvel (DYNAMICS)  max=  0.00000000000000E+00
DEBUG_STATS_RL:                Uvel (DYNAMICS) mean=  0.00000000000000E+00
DEBUG_STATS_RL:                Uvel (DYNAMICS) S.D.=  0.00000000000000E+00
DEBUG_STATS_RL:                Vvel (DYNAMICS)  min=  0.00000000000000E+00
DEBUG_STATS_RL:                Vvel (DYNAMICS)  max=  0.00000000000000E+00
DEBUG_STATS_RL:                Vvel (DYNAMICS) mean=  0.00000000000000E+00
DEBUG_STATS_RL:                Vvel (DYNAMICS) S.D.=  0.00000000000000E+00
DEBUG_STATS_RL:                Wvel (DYNAMICS)  min=  0.00000000000000E+00
DEBUG_STATS_RL:                Wvel (DYNAMICS)  max=  0.00000000000000E+00
DEBUG_STATS_RL:                Wvel (DYNAMICS) mean=  0.00000000000000E+00
DEBUG_STATS_RL:                Wvel (DYNAMICS) S.D.=  0.00000000000000E+00
DEBUG_STATS_RL:               Theta (DYNAMICS)  min= -1.41036188602448E+00
DEBUG_STATS_RL:               Theta (DYNAMICS)  max=  1.33330764770508E+01
DEBUG_STATS_RL:               Theta (DYNAMICS) mean=  2.90475522269124E+00
DEBUG_STATS_RL:               Theta (DYNAMICS) S.D.=  2.44037465259698E+00
DEBUG_STATS_RL:                Salt (DYNAMICS)  min=  3.01286983489990E+01
DEBUG_STATS_RL:                Salt (DYNAMICS)  max=  3.54506225585938E+01
DEBUG_STATS_RL:                Salt (DYNAMICS) mean=  3.40845304745500E+01
DEBUG_STATS_RL:                Salt (DYNAMICS) S.D.=  9.00924836964808E-01
DEBUG_STATS_RL:                  Gu (DYNAMICS)  min= -2.00599447531986E-02
DEBUG_STATS_RL:                  Gu (DYNAMICS)  max=  1.04076999541495E-02
DEBUG_STATS_RL:                  Gu (DYNAMICS) mean= -2.58939542765896E-03
DEBUG_STATS_RL:                  Gu (DYNAMICS) S.D.=  4.84472279217175E-03
DEBUG_STATS_RL:                  Gv (DYNAMICS)  min= -2.97181268783620E-02
DEBUG_STATS_RL:                  Gv (DYNAMICS)  max=  1.05795727308992E-02
DEBUG_STATS_RL:                  Gv (DYNAMICS) mean= -1.51075895161939E-03
DEBUG_STATS_RL:                  Gv (DYNAMICS) S.D.=  5.23505354600419E-03
DEBUG_STATS_RL:               GuNm1 (DYNAMICS)  min=  0.00000000000000E+00
DEBUG_STATS_RL:               GuNm1 (DYNAMICS)  max=  0.00000000000000E+00
DEBUG_STATS_RL:               GuNm1 (DYNAMICS) mean=  0.00000000000000E+00
DEBUG_STATS_RL:               GuNm1 (DYNAMICS) S.D.=  0.00000000000000E+00
DEBUG_STATS_RL:               GvNm1 (DYNAMICS)  min=  0.00000000000000E+00
DEBUG_STATS_RL:               GvNm1 (DYNAMICS)  max=  0.00000000000000E+00
DEBUG_STATS_RL:               GvNm1 (DYNAMICS) mean=  0.00000000000000E+00
DEBUG_STATS_RL:               GvNm1 (DYNAMICS) S.D.=  0.00000000000000E+00
DEBUG_STATS_RL:               GtNm1 (DYNAMICS)  min=  0.00000000000000E+00
DEBUG_STATS_RL:               GtNm1 (DYNAMICS)  max=  0.00000000000000E+00
DEBUG_STATS_RL:               GtNm1 (DYNAMICS) mean=  0.00000000000000E+00
DEBUG_STATS_RL:               GtNm1 (DYNAMICS) S.D.=  0.00000000000000E+00
DEBUG_STATS_RL:               GsNm1 (DYNAMICS)  min=  0.00000000000000E+00
DEBUG_STATS_RL:               GsNm1 (DYNAMICS)  max=  0.00000000000000E+00
DEBUG_STATS_RL:               GsNm1 (DYNAMICS) mean=  0.00000000000000E+00
DEBUG_STATS_RL:               GsNm1 (DYNAMICS) S.D.=  0.00000000000000E+00
(PID.TID 0000.0001) SOLVE_FOR_PRESSURE: putPmEinXvector =    F
DEBUG_STATS_RL:    cg2d_b (SOLVE_FOR_PRESSURE)  min= -6.15797366908278E+03
DEBUG_STATS_RL:    cg2d_b (SOLVE_FOR_PRESSURE)  max=  2.03762696322118E+03
DEBUG_STATS_RL:    cg2d_b (SOLVE_FOR_PRESSURE) mean=  2.40637139844087E-14
DEBUG_STATS_RL:    cg2d_b (SOLVE_FOR_PRESSURE) S.D.=  8.03730450548215E+02
 cg2d: Sum(rhs),rhsMax =   7.91033905045424E-16  9.91122157459750E-01
DEBUG_STATS_RL:    cg2d_x (SOLVE_FOR_PRESSURE)  min= -7.77200124675132E-01
DEBUG_STATS_RL:    cg2d_x (SOLVE_FOR_PRESSURE)  max=  2.02552651121663E+00
DEBUG_STATS_RL:    cg2d_x (SOLVE_FOR_PRESSURE) mean= -8.58037095103906E-03
DEBUG_STATS_RL:    cg2d_x (SOLVE_FOR_PRESSURE) S.D.=  4.14863218307968E-01
DEBUG_STATS_RL:          Uvel (THERMODYNAMICS)  min= -1.97613285723242E-02
DEBUG_STATS_RL:          Uvel (THERMODYNAMICS)  max=  1.31897193240012E-02
DEBUG_STATS_RL:          Uvel (THERMODYNAMICS) mean= -7.76915115649382E-04
DEBUG_STATS_RL:          Uvel (THERMODYNAMICS) S.D.=  3.97168834923499E-03
DEBUG_STATS_RL:          Vvel (THERMODYNAMICS)  min= -1.13773235335529E-02
DEBUG_STATS_RL:          Vvel (THERMODYNAMICS)  max=  2.04284639774261E-02
DEBUG_STATS_RL:          Vvel (THERMODYNAMICS) mean=  7.24190880687442E-04
DEBUG_STATS_RL:          Vvel (THERMODYNAMICS) S.D.=  4.28907995073846E-03
DEBUG_STATS_RL:          Wvel (THERMODYNAMICS)  min= -4.27131465138430E-05
DEBUG_STATS_RL:          Wvel (THERMODYNAMICS)  max=  1.16530364658749E-04
DEBUG_STATS_RL:          Wvel (THERMODYNAMICS) mean= -4.07763417598552E-07
DEBUG_STATS_RL:          Wvel (THERMODYNAMICS) S.D.=  1.80149904412009E-05
DEBUG_STATS_RL:         Theta (THERMODYNAMICS)  min= -1.41019615972461E+00
DEBUG_STATS_RL:         Theta (THERMODYNAMICS)  max=  1.32440592110212E+01
DEBUG_STATS_RL:         Theta (THERMODYNAMICS) mean=  2.49735783552472E+00
DEBUG_STATS_RL:         Theta (THERMODYNAMICS) S.D.=  2.45807980529386E+00
DEBUG_STATS_RL:          Salt (THERMODYNAMICS)  min=  2.76560994014067E+01
DEBUG_STATS_RL:          Salt (THERMODYNAMICS)  max=  3.54507778736995E+01
DEBUG_STATS_RL:          Salt (THERMODYNAMICS) mean=  3.39623217189239E+01
DEBUG_STATS_RL:          Salt (THERMODYNAMICS) S.D.=  1.10108958710345E+00
DEBUG_STATS_RL:         GtNm1 (THERMODYNAMICS)  min=  0.00000000000000E+00
DEBUG_STATS_RL:         GtNm1 (THERMODYNAMICS)  max=  0.00000000000000E+00
DEBUG_STATS_RL:         GtNm1 (THERMODYNAMICS) mean=  0.00000000000000E+00
DEBUG_STATS_RL:         GtNm1 (THERMODYNAMICS) S.D.=  0.00000000000000E+00
DEBUG_STATS_RL:         GsNm1 (THERMODYNAMICS)  min=  0.00000000000000E+00
DEBUG_STATS_RL:         GsNm1 (THERMODYNAMICS)  max=  0.00000000000000E+00
DEBUG_STATS_RL:         GsNm1 (THERMODYNAMICS) mean=  0.00000000000000E+00
DEBUG_STATS_RL:         GsNm1 (THERMODYNAMICS) S.D.=  0.00000000000000E+00
(PID.TID 0000.0001)  MDS_WRITE_FIELD: it,rec,kS,kL,kH=       1     2   1   1   1 file=m_sst_step.0000000001
(PID.TID 0000.0001)  MDS_READ_FIELD: opening global file: xx_atemp.effective.0000000001.data
(PID.TID 0000.0001) EXF_SET_FLD: processing field "climsss",  file: SSS_monthly.labsea1979
(PID.TID 0000.0001) EXF_SET_FLD:   myIter, count0, count1:         1      1      2
(PID.TID 0000.0001) EXF_SET_FLD:   first, changed, fac:   F   F    0.49863387978142082
(PID.TID 0000.0001) EXF_SET_FLD: processing field "uwind",  file: u10m.labsea1979
(PID.TID 0000.0001) EXF_SET_FLD:   myIter, count0, count1:         1      1      2
(PID.TID 0000.0001) EXF_SET_FLD:   first, changed, fac:   F   F    0.49863387978142082
(PID.TID 0000.0001) EXF_SET_FLD: processing field "vwind",  file: v10m.labsea1979
(PID.TID 0000.0001) EXF_SET_FLD:   myIter, count0, count1:         1      1      2
(PID.TID 0000.0001) EXF_SET_FLD:   first, changed, fac:   F   F    0.49863387978142082
(PID.TID 0000.0001) EXF_SET_FLD: processing field "atemp",  file: tair.labsea1979
(PID.TID 0000.0001) EXF_SET_FLD:   myIter, count0, count1:         1      1      2
(PID.TID 0000.0001) EXF_SET_FLD:   first, changed, fac:   F   F    0.49863387978142082
(PID.TID 0000.0001) EXF_SET_FLD: processing field "aqh",  file: qa.labsea1979
(PID.TID 0000.0001) EXF_SET_FLD:   myIter, count0, count1:         1      1      2
(PID.TID 0000.0001) EXF_SET_FLD:   first, changed, fac:   F   F    0.49863387978142082
(PID.TID 0000.0001) EXF_SET_FLD: processing field "precip",  file: prate.labsea1979
(PID.TID 0000.0001) EXF_SET_FLD:   myIter, count0, count1:         1      1      2
(PID.TID 0000.0001) EXF_SET_FLD:   first, changed, fac:   F   F    0.49863387978142082
(PID.TID 0000.0001) EXF_SET_FLD: processing field "swdown",  file: fsh.labsea1979
(PID.TID 0000.0001) EXF_SET_FLD:   myIter, count0, count1:         1      1      2
(PID.TID 0000.0001) EXF_SET_FLD:   first, changed, fac:   F   F    0.49863387978142082
(PID.TID 0000.0001) EXF_SET_FLD: processing field "lwdown",  file: flo.labsea1979
(PID.TID 0000.0001) EXF_SET_FLD:   myIter, count0, count1:         1      1      2
(PID.TID 0000.0001) EXF_SET_FLD:   first, changed, fac:   F   F    0.49863387978142082
DEBUG_STATS_RL: Uice pre  iter (SEAICE_LSR  1)  min= -1.15942749827435E-03
DEBUG_STATS_RL: Uice pre  iter (SEAICE_LSR  1)  max=  1.20418167656252E-02
DEBUG_STATS_RL: Uice pre  iter (SEAICE_LSR  1) mean=  2.64506216410235E-03
DEBUG_STATS_RL: Uice pre  iter (SEAICE_LSR  1) S.D.=  3.13774756817759E-03
DEBUG_STATS_RL: Vice pre  iter (SEAICE_LSR  1)  min= -5.99336397479914E-03
DEBUG_STATS_RL: Vice pre  iter (SEAICE_LSR  1)  max=  4.08760906980194E-03
DEBUG_STATS_RL: Vice pre  iter (SEAICE_LSR  1) mean= -1.18494610218030E-03
DEBUG_STATS_RL: Vice pre  iter (SEAICE_LSR  1) S.D.=  2.51572614879252E-03
DEBUG_STATS_RL: Uice pre  iter (SEAICE_LSR  2)  min= -1.66461661595648E-03
DEBUG_STATS_RL: Uice pre  iter (SEAICE_LSR  2)  max=  2.05817158221004E-01
DEBUG_STATS_RL: Uice pre  iter (SEAICE_LSR  2) mean=  2.18937658776570E-02
DEBUG_STATS_RL: Uice pre  iter (SEAICE_LSR  2) S.D.=  4.15140060700931E-02
DEBUG_STATS_RL: Vice pre  iter (SEAICE_LSR  2)  min= -1.15170217244308E-02
DEBUG_STATS_RL: Vice pre  iter (SEAICE_LSR  2)  max=  6.02623623339015E-02
DEBUG_STATS_RL: Vice pre  iter (SEAICE_LSR  2) mean= -5.88552864147154E-04
DEBUG_STATS_RL: Vice pre  iter (SEAICE_LSR  2) S.D.=  1.21471679479680E-02
DEBUG_STATS_RL:                EtaN (DYNAMICS)  min= -7.91800933896177E-02
DEBUG_STATS_RL:                EtaN (DYNAMICS)  max=  2.06357890624784E-01
DEBUG_STATS_RL:                EtaN (DYNAMICS) mean= -8.74156541733471E-04
DEBUG_STATS_RL:                EtaN (DYNAMICS) S.D.=  4.22657013639480E-02
DEBUG_STATS_RL:                Uvel (DYNAMICS)  min= -1.97613285723242E-02
DEBUG_STATS_RL:                Uvel (DYNAMICS)  max=  1.31897193240012E-02
DEBUG_STATS_RL:                Uvel (DYNAMICS) mean= -7.76915115649382E-04
DEBUG_STATS_RL:                Uvel (DYNAMICS) S.D.=  3.97168834923499E-03
DEBUG_STATS_RL:                Vvel (DYNAMICS)  min= -1.13773235335529E-02
DEBUG_STATS_RL:                Vvel (DYNAMICS)  max=  2.04284639774261E-02
DEBUG_STATS_RL:                Vvel (DYNAMICS) mean=  7.24190880687442E-04
DEBUG_STATS_RL:                Vvel (DYNAMICS) S.D.=  4.28907995073846E-03
DEBUG_STATS_RL:                Wvel (DYNAMICS)  min= -4.27131465138430E-05
DEBUG_STATS_RL:                Wvel (DYNAMICS)  max=  1.16530364658749E-04
DEBUG_STATS_RL:                Wvel (DYNAMICS) mean= -4.07763417598552E-07
DEBUG_STATS_RL:                Wvel (DYNAMICS) S.D.=  1.80149904412009E-05
DEBUG_STATS_RL:               Theta (DYNAMICS)  min= -1.41019615972461E+00
DEBUG_STATS_RL:               Theta (DYNAMICS)  max=  1.32440592110212E+01
DEBUG_STATS_RL:               Theta (DYNAMICS) mean=  2.49735783552472E+00
DEBUG_STATS_RL:               Theta (DYNAMICS) S.D.=  2.45807980529386E+00
DEBUG_STATS_RL:                Salt (DYNAMICS)  min=  2.76560994014067E+01
DEBUG_STATS_RL:                Salt (DYNAMICS)  max=  3.54507778736995E+01
DEBUG_STATS_RL:                Salt (DYNAMICS) mean=  3.39623217189239E+01
DEBUG_STATS_RL:                Salt (DYNAMICS) S.D.=  1.10108958710345E+00
DEBUG_STATS_RL:                  Gu (DYNAMICS)  min= -2.89112950168885E-02
DEBUG_STATS_RL:                  Gu (DYNAMICS)  max=  3.25741619058368E-02
DEBUG_STATS_RL:                  Gu (DYNAMICS) mean= -2.32520622241881E-03
DEBUG_STATS_RL:                  Gu (DYNAMICS) S.D.=  7.09155735784520E-03
DEBUG_STATS_RL:                  Gv (DYNAMICS)  min= -3.71241625510621E-02
DEBUG_STATS_RL:                  Gv (DYNAMICS)  max=  1.83230442031147E-02
DEBUG_STATS_RL:                  Gv (DYNAMICS) mean= -1.89259208722203E-03
DEBUG_STATS_RL:                  Gv (DYNAMICS) S.D.=  7.31046974976083E-03
DEBUG_STATS_RL:               GuNm1 (DYNAMICS)  min= -1.80289983389196E-07
DEBUG_STATS_RL:               GuNm1 (DYNAMICS)  max=  1.49251399870334E-07
DEBUG_STATS_RL:               GuNm1 (DYNAMICS) mean=  3.41794292088730E-09
DEBUG_STATS_RL:               GuNm1 (DYNAMICS) S.D.=  3.19693794884499E-08
DEBUG_STATS_RL:               GvNm1 (DYNAMICS)  min= -5.11118133734402E-08
DEBUG_STATS_RL:               GvNm1 (DYNAMICS)  max=  4.88281454922596E-08
DEBUG_STATS_RL:               GvNm1 (DYNAMICS) mean= -4.70245831256227E-11
DEBUG_STATS_RL:               GvNm1 (DYNAMICS) S.D.=  1.42003013108260E-08
DEBUG_STATS_RL:               GtNm1 (DYNAMICS)  min=  0.00000000000000E+00
DEBUG_STATS_RL:               GtNm1 (DYNAMICS)  max=  0.00000000000000E+00
DEBUG_STATS_RL:               GtNm1 (DYNAMICS) mean=  0.00000000000000E+00
DEBUG_STATS_RL:               GtNm1 (DYNAMICS) S.D.=  0.00000000000000E+00
DEBUG_STATS_RL:               GsNm1 (DYNAMICS)  min=  0.00000000000000E+00
DEBUG_STATS_RL:               GsNm1 (DYNAMICS)  max=  0.00000000000000E+00
DEBUG_STATS_RL:               GsNm1 (DYNAMICS) mean=  0.00000000000000E+00
DEBUG_STATS_RL:               GsNm1 (DYNAMICS) S.D.=  0.00000000000000E+00
DEBUG_STATS_RL:    cg2d_b (SOLVE_FOR_PRESSURE)  min= -7.40048897093643E+03
DEBUG_STATS_RL:    cg2d_b (SOLVE_FOR_PRESSURE)  max=  2.33428667016753E+03
DEBUG_STATS_RL:    cg2d_b (SOLVE_FOR_PRESSURE) mean=  3.90324809510882E-14
DEBUG_STATS_RL:    cg2d_b (SOLVE_FOR_PRESSURE) S.D.=  9.39768538610373E+02
 cg2d: Sum(rhs),rhsMax =   1.53002610581154E-15  1.19110424780756E+00
DEBUG_STATS_RL:    cg2d_x (SOLVE_FOR_PRESSURE)  min= -1.25977767814666E+00
DEBUG_STATS_RL:    cg2d_x (SOLVE_FOR_PRESSURE)  max=  2.83276936769469E+00
DEBUG_STATS_RL:    cg2d_x (SOLVE_FOR_PRESSURE) mean= -1.56118539430846E-02
DEBUG_STATS_RL:    cg2d_x (SOLVE_FOR_PRESSURE) S.D.=  6.63083405129880E-01
DEBUG_STATS_RL:          Uvel (THERMODYNAMICS)  min= -4.02432897586655E-02
DEBUG_STATS_RL:          Uvel (THERMODYNAMICS)  max=  3.23458159885808E-02
DEBUG_STATS_RL:          Uvel (THERMODYNAMICS) mean=  6.75465330209926E-04
DEBUG_STATS_RL:          Uvel (THERMODYNAMICS) S.D.=  7.33761384666914E-03
DEBUG_STATS_RL:          Vvel (THERMODYNAMICS)  min= -1.64862319058741E-02
DEBUG_STATS_RL:          Vvel (THERMODYNAMICS)  max=  4.21759382970963E-02
DEBUG_STATS_RL:          Vvel (THERMODYNAMICS) mean=  1.82858022907253E-03
DEBUG_STATS_RL:          Vvel (THERMODYNAMICS) S.D.=  8.08424055894294E-03
DEBUG_STATS_RL:          Wvel (THERMODYNAMICS)  min= -6.56490529174610E-05
DEBUG_STATS_RL:          Wvel (THERMODYNAMICS)  max=  1.68683217295648E-04
DEBUG_STATS_RL:          Wvel (THERMODYNAMICS) mean= -4.30739495112772E-07
DEBUG_STATS_RL:          Wvel (THERMODYNAMICS) S.D.=  1.89945067258173E-05
DEBUG_STATS_RL:         Theta (THERMODYNAMICS)  min= -1.83156742552816E+00
DEBUG_STATS_RL:         Theta (THERMODYNAMICS)  max=  1.32606612249659E+01
DEBUG_STATS_RL:         Theta (THERMODYNAMICS) mean=  2.43057765558689E+00
DEBUG_STATS_RL:         Theta (THERMODYNAMICS) S.D.=  2.55246643542934E+00
DEBUG_STATS_RL:          Salt (THERMODYNAMICS)  min=  2.76092906345221E+01
DEBUG_STATS_RL:          Salt (THERMODYNAMICS)  max=  3.54509236522671E+01
DEBUG_STATS_RL:          Salt (THERMODYNAMICS) mean=  3.39413044254439E+01
DEBUG_STATS_RL:          Salt (THERMODYNAMICS) S.D.=  1.14495872836419E+00
DEBUG_STATS_RL:         GtNm1 (THERMODYNAMICS)  min=  0.00000000000000E+00
DEBUG_STATS_RL:         GtNm1 (THERMODYNAMICS)  max=  0.00000000000000E+00
DEBUG_STATS_RL:         GtNm1 (THERMODYNAMICS) mean=  0.00000000000000E+00
DEBUG_STATS_RL:         GtNm1 (THERMODYNAMICS) S.D.=  0.00000000000000E+00
DEBUG_STATS_RL:         GsNm1 (THERMODYNAMICS)  min=  0.00000000000000E+00
DEBUG_STATS_RL:         GsNm1 (THERMODYNAMICS)  max=  0.00000000000000E+00
DEBUG_STATS_RL:         GsNm1 (THERMODYNAMICS) mean=  0.00000000000000E+00
DEBUG_STATS_RL:         GsNm1 (THERMODYNAMICS) S.D.=  0.00000000000000E+00
(PID.TID 0000.0001)  MDS_WRITE_FIELD: it,rec,kS,kL,kH=       1     3   1   1   1 file=m_sst_step.0000000001
(PID.TID 0000.0001)  MDS_READ_FIELD: opening global file: xx_atemp.effective.0000000001.data
(PID.TID 0000.0001) EXF_SET_FLD: processing field "climsss",  file: SSS_monthly.labsea1979
(PID.TID 0000.0001) EXF_SET_FLD:   myIter, count0, count1:         2      1      2
(PID.TID 0000.0001) EXF_SET_FLD:   first, changed, fac:   F   F    0.49726775956284153
(PID.TID 0000.0001) EXF_SET_FLD: processing field "uwind",  file: u10m.labsea1979
(PID.TID 0000.0001) EXF_SET_FLD:   myIter, count0, count1:         2      1      2
(PID.TID 0000.0001) EXF_SET_FLD:   first, changed, fac:   F   F    0.49726775956284153
(PID.TID 0000.0001) EXF_SET_FLD: processing field "vwind",  file: v10m.labsea1979
(PID.TID 0000.0001) EXF_SET_FLD:   myIter, count0, count1:         2      1      2
(PID.TID 0000.0001) EXF_SET_FLD:   first, changed, fac:   F   F    0.49726775956284153
(PID.TID 0000.0001) EXF_SET_FLD: processing field "atemp",  file: tair.labsea1979
(PID.TID 0000.0001) EXF_SET_FLD:   myIter, count0, count1:         2      1      2
(PID.TID 0000.0001) EXF_SET_FLD:   first, changed, fac:   F   F    0.49726775956284153
(PID.TID 0000.0001) EXF_SET_FLD: processing field "aqh",  file: qa.labsea1979
(PID.TID 0000.0001) EXF_SET_FLD:   myIter, count0, count1:         2      1      2
(PID.TID 0000.0001) EXF_SET_FLD:   first, changed, fac:   F   F    0.49726775956284153
(PID.TID 0000.0001) EXF_SET_FLD: processing field "precip",  file: prate.labsea1979
(PID.TID 0000.0001) EXF_SET_FLD:   myIter, count0, count1:         2      1      2
(PID.TID 0000.0001) EXF_SET_FLD:   first, changed, fac:   F   F    0.49726775956284153
(PID.TID 0000.0001) EXF_SET_FLD: processing field "swdown",  file: fsh.labsea1979
(PID.TID 0000.0001) EXF_SET_FLD:   myIter, count0, count1:         2      1      2
(PID.TID 0000.0001) EXF_SET_FLD:   first, changed, fac:   F   F    0.49726775956284153
(PID.TID 0000.0001) EXF_SET_FLD: processing field "lwdown",  file: flo.labsea1979
(PID.TID 0000.0001) EXF_SET_FLD:   myIter, count0, count1:         2      1      2
(PID.TID 0000.0001) EXF_SET_FLD:   first, changed, fac:   F   F    0.49726775956284153
DEBUG_STATS_RL: Uice pre  iter (SEAICE_LSR  1)  min= -2.72590911190358E-03
DEBUG_STATS_RL: Uice pre  iter (SEAICE_LSR  1)  max=  1.84821888363615E-01
DEBUG_STATS_RL: Uice pre  iter (SEAICE_LSR  1) mean=  4.43171854916454E-02
DEBUG_STATS_RL: Uice pre  iter (SEAICE_LSR  1) S.D.=  5.55969094951849E-02
DEBUG_STATS_RL: Vice pre  iter (SEAICE_LSR  1)  min= -3.16987209121493E-02
DEBUG_STATS_RL: Vice pre  iter (SEAICE_LSR  1)  max=  6.25866618672353E-02
DEBUG_STATS_RL: Vice pre  iter (SEAICE_LSR  1) mean= -5.92146683087681E-03
DEBUG_STATS_RL: Vice pre  iter (SEAICE_LSR  1) S.D.=  1.77615498820521E-02
DEBUG_STATS_RL: Uice pre  iter (SEAICE_LSR  2)  min= -3.50206878134759E-03
DEBUG_STATS_RL: Uice pre  iter (SEAICE_LSR  2)  max=  1.92025155896598E-01
DEBUG_STATS_RL: Uice pre  iter (SEAICE_LSR  2) mean=  5.29589963327888E-02
DEBUG_STATS_RL: Uice pre  iter (SEAICE_LSR  2) S.D.=  5.86189159299665E-02
DEBUG_STATS_RL: Vice pre  iter (SEAICE_LSR  2)  min= -6.12456112266653E-02
DEBUG_STATS_RL: Vice pre  iter (SEAICE_LSR  2)  max=  9.55317561460537E-02
DEBUG_STATS_RL: Vice pre  iter (SEAICE_LSR  2) mean= -1.11523016932064E-02
DEBUG_STATS_RL: Vice pre  iter (SEAICE_LSR  2) S.D.=  2.73762100034393E-02
DEBUG_STATS_RL:                EtaN (DYNAMICS)  min= -1.28344439274895E-01
DEBUG_STATS_RL:                EtaN (DYNAMICS)  max=  2.88598696737305E-01
DEBUG_STATS_RL:                EtaN (DYNAMICS) mean= -1.59051448134445E-03
DEBUG_STATS_RL:                EtaN (DYNAMICS) S.D.=  6.75540369544276E-02
DEBUG_STATS_RL:                Uvel (DYNAMICS)  min= -4.02432897586655E-02
DEBUG_STATS_RL:                Uvel (DYNAMICS)  max=  3.23458159885808E-02
DEBUG_STATS_RL:                Uvel (DYNAMICS) mean=  6.75465330209926E-04
DEBUG_STATS_RL:                Uvel (DYNAMICS) S.D.=  7.33761384666914E-03
DEBUG_STATS_RL:                Vvel (DYNAMICS)  min= -1.64862319058741E-02
DEBUG_STATS_RL:                Vvel (DYNAMICS)  max=  4.21759382970963E-02
DEBUG_STATS_RL:                Vvel (DYNAMICS) mean=  1.82858022907253E-03
DEBUG_STATS_RL:                Vvel (DYNAMICS) S.D.=  8.08424055894294E-03
DEBUG_STATS_RL:                Wvel (DYNAMICS)  min= -6.56490529174610E-05
DEBUG_STATS_RL:                Wvel (DYNAMICS)  max=  1.68683217295648E-04
DEBUG_STATS_RL:                Wvel (DYNAMICS) mean= -4.30739495112772E-07
DEBUG_STATS_RL:                Wvel (DYNAMICS) S.D.=  1.89945067258173E-05
DEBUG_STATS_RL:               Theta (DYNAMICS)  min= -1.83156742552816E+00
DEBUG_STATS_RL:               Theta (DYNAMICS)  max=  1.32606612249659E+01
DEBUG_STATS_RL:               Theta (DYNAMICS) mean=  2.43057765558689E+00
DEBUG_STATS_RL:               Theta (DYNAMICS) S.D.=  2.55246643542934E+00
DEBUG_STATS_RL:                Salt (DYNAMICS)  min=  2.76092906345221E+01
DEBUG_STATS_RL:                Salt (DYNAMICS)  max=  3.54509236522671E+01
DEBUG_STATS_RL:                Salt (DYNAMICS) mean=  3.39413044254439E+01
DEBUG_STATS_RL:                Salt (DYNAMICS) S.D.=  1.14495872836419E+00
DEBUG_STATS_RL:                  Gu (DYNAMICS)  min= -3.23510557472044E-02
DEBUG_STATS_RL:                  Gu (DYNAMICS)  max=  5.80377411255949E-02
DEBUG_STATS_RL:                  Gu (DYNAMICS) mean= -2.97572069525774E-04
DEBUG_STATS_RL:                  Gu (DYNAMICS) S.D.=  9.92934455350595E-03
DEBUG_STATS_RL:                  Gv (DYNAMICS)  min= -4.01882757136262E-02
DEBUG_STATS_RL:                  Gv (DYNAMICS)  max=  3.49568132071783E-02
DEBUG_STATS_RL:                  Gv (DYNAMICS) mean= -2.47632966122203E-03
DEBUG_STATS_RL:                  Gv (DYNAMICS) S.D.=  9.60357312382275E-03
DEBUG_STATS_RL:               GuNm1 (DYNAMICS)  min= -2.64915263690508E-07
DEBUG_STATS_RL:               GuNm1 (DYNAMICS)  max=  1.75889100747609E-07
DEBUG_STATS_RL:               GuNm1 (DYNAMICS) mean=  2.42191647086020E-09
DEBUG_STATS_RL:               GuNm1 (DYNAMICS) S.D.=  4.49076324942966E-08
DEBUG_STATS_RL:               GvNm1 (DYNAMICS)  min= -8.47298200116551E-08
DEBUG_STATS_RL:               GvNm1 (DYNAMICS)  max=  7.67749697778885E-08
DEBUG_STATS_RL:               GvNm1 (DYNAMICS) mean= -4.71533361259629E-10
DEBUG_STATS_RL:               GvNm1 (DYNAMICS) S.D.=  2.04113373444535E-08
DEBUG_STATS_RL:               GtNm1 (DYNAMICS)  min=  0.00000000000000E+00
DEBUG_STATS_RL:               GtNm1 (DYNAMICS)  max=  0.00000000000000E+00
DEBUG_STATS_RL:               GtNm1 (DYNAMICS) mean=  0.00000000000000E+00
DEBUG_STATS_RL:               GtNm1 (DYNAMICS) S.D.=  0.00000000000000E+00
DEBUG_STATS_RL:               GsNm1 (DYNAMICS)  min=  0.00000000000000E+00
DEBUG_STATS_RL:               GsNm1 (DYNAMICS)  max=  0.00000000000000E+00
DEBUG_STATS_RL:               GsNm1 (DYNAMICS) mean=  0.00000000000000E+00
DEBUG_STATS_RL:               GsNm1 (DYNAMICS) S.D.=  0.00000000000000E+00
DEBUG_STATS_RL:    cg2d_b (SOLVE_FOR_PRESSURE)  min= -7.51696131718232E+03
DEBUG_STATS_RL:    cg2d_b (SOLVE_FOR_PRESSURE)  max=  2.21291016221042E+03
DEBUG_STATS_RL:    cg2d_b (SOLVE_FOR_PRESSURE) mean=  3.98661844277134E-13
DEBUG_STATS_RL:    cg2d_b (SOLVE_FOR_PRESSURE) S.D.=  9.35355930257346E+02
 cg2d: Sum(rhs),rhsMax =   7.81666398275149E-15  1.20985040186716E+00
DEBUG_STATS_RL:    cg2d_x (SOLVE_FOR_PRESSURE)  min= -1.39137659518988E+00
DEBUG_STATS_RL:    cg2d_x (SOLVE_FOR_PRESSURE)  max=  3.06244143644387E+00
DEBUG_STATS_RL:    cg2d_x (SOLVE_FOR_PRESSURE) mean= -2.04738907200249E-02
DEBUG_STATS_RL:    cg2d_x (SOLVE_FOR_PRESSURE) S.D.=  7.54254787472882E-01
DEBUG_STATS_RL:          Uvel (THERMODYNAMICS)  min= -4.85747443135391E-02
DEBUG_STATS_RL:          Uvel (THERMODYNAMICS)  max=  6.48566534974139E-02
DEBUG_STATS_RL:          Uvel (THERMODYNAMICS) mean=  2.83347825460524E-03
DEBUG_STATS_RL:          Uvel (THERMODYNAMICS) S.D.=  1.04406948546638E-02
DEBUG_STATS_RL:          Vvel (THERMODYNAMICS)  min= -2.93630589501309E-02
DEBUG_STATS_RL:          Vvel (THERMODYNAMICS)  max=  5.51081422495757E-02
DEBUG_STATS_RL:          Vvel (THERMODYNAMICS) mean=  1.89398823345384E-03
DEBUG_STATS_RL:          Vvel (THERMODYNAMICS) S.D.=  1.13685531753010E-02
DEBUG_STATS_RL:          Wvel (THERMODYNAMICS)  min= -1.01835019199985E-04
DEBUG_STATS_RL:          Wvel (THERMODYNAMICS)  max=  2.18299385766789E-04
DEBUG_STATS_RL:          Wvel (THERMODYNAMICS) mean= -3.58449213338453E-07
DEBUG_STATS_RL:          Wvel (THERMODYNAMICS) S.D.=  2.04428902649861E-05
DEBUG_STATS_RL:         Theta (THERMODYNAMICS)  min= -1.93250363389783E+00
DEBUG_STATS_RL:         Theta (THERMODYNAMICS)  max=  1.32631363173882E+01
DEBUG_STATS_RL:         Theta (THERMODYNAMICS) mean=  2.41867029854828E+00
DEBUG_STATS_RL:         Theta (THERMODYNAMICS) S.D.=  2.57126546321788E+00
DEBUG_STATS_RL:          Salt (THERMODYNAMICS)  min=  2.76143299539290E+01
DEBUG_STATS_RL:          Salt (THERMODYNAMICS)  max=  3.54510577106203E+01
DEBUG_STATS_RL:          Salt (THERMODYNAMICS) mean=  3.39375783473310E+01
DEBUG_STATS_RL:          Salt (THERMODYNAMICS) S.D.=  1.15271478316013E+00
DEBUG_STATS_RL:         GtNm1 (THERMODYNAMICS)  min=  0.00000000000000E+00
DEBUG_STATS_RL:         GtNm1 (THERMODYNAMICS)  max=  0.00000000000000E+00
DEBUG_STATS_RL:         GtNm1 (THERMODYNAMICS) mean=  0.00000000000000E+00
DEBUG_STATS_RL:         GtNm1 (THERMODYNAMICS) S.D.=  0.00000000000000E+00
DEBUG_STATS_RL:         GsNm1 (THERMODYNAMICS)  min=  0.00000000000000E+00
DEBUG_STATS_RL:         GsNm1 (THERMODYNAMICS)  max=  0.00000000000000E+00
DEBUG_STATS_RL:         GsNm1 (THERMODYNAMICS) mean=  0.00000000000000E+00
DEBUG_STATS_RL:         GsNm1 (THERMODYNAMICS) S.D.=  0.00000000000000E+00
(PID.TID 0000.0001)  MDS_WRITE_FIELD: it,rec,kS,kL,kH=       1     4   1   1   1 file=m_sst_step.0000000001
(PID.TID 0000.0001)  MDS_READ_FIELD: opening global file: xx_atemp.effective.0000000001.data
(PID.TID 0000.0001) EXF_SET_FLD: processing field "climsss",  file: SSS_monthly.labsea1979
(PID.TID 0000.0001) EXF_SET_FLD:   myIter, count0, count1:         3      1      2
(PID.TID 0000.0001) EXF_SET_FLD:   first, changed, fac:   F   F    0.49590163934426235
(PID.TID 0000.0001) EXF_SET_FLD: processing field "uwind",  file: u10m.labsea1979
(PID.TID 0000.0001) EXF_SET_FLD:   myIter, count0, count1:         3      1      2
(PID.TID 0000.0001) EXF_SET_FLD:   first, changed, fac:   F   F    0.49590163934426235
(PID.TID 0000.0001) EXF_SET_FLD: processing field "vwind",  file: v10m.labsea1979
(PID.TID 0000.0001) EXF_SET_FLD:   myIter, count0, count1:         3      1      2
(PID.TID 0000.0001) EXF_SET_FLD:   first, changed, fac:   F   F    0.49590163934426235
(PID.TID 0000.0001) EXF_SET_FLD: processing field "atemp",  file: tair.labsea1979
(PID.TID 0000.0001) EXF_SET_FLD:   myIter, count0, count1:         3      1      2
(PID.TID 0000.0001) EXF_SET_FLD:   first, changed, fac:   F   F    0.49590163934426235
(PID.TID 0000.0001) EXF_SET_FLD: processing field "aqh",  file: qa.labsea1979
(PID.TID 0000.0001) EXF_SET_FLD:   myIter, count0, count1:         3      1      2
(PID.TID 0000.0001) EXF_SET_FLD:   first, changed, fac:   F   F    0.49590163934426235
(PID.TID 0000.0001) EXF_SET_FLD: processing field "precip",  file: prate.labsea1979
(PID.TID 0000.0001) EXF_SET_FLD:   myIter, count0, count1:         3      1      2
(PID.TID 0000.0001) EXF_SET_FLD:   first, changed, fac:   F   F    0.49590163934426235
(PID.TID 0000.0001) EXF_SET_FLD: processing field "swdown",  file: fsh.labsea1979
(PID.TID 0000.0001) EXF_SET_FLD:   myIter, count0, count1:         3      1      2
(PID.TID 0000.0001) EXF_SET_FLD:   first, changed, fac:   F   F    0.49590163934426235
(PID.TID 0000.0001) EXF_SET_FLD: processing field "lwdown",  file: flo.labsea1979
(PID.TID 0000.0001) EXF_SET_FLD:   myIter, count0, count1:         3      1      2
(PID.TID 0000.0001) EXF_SET_FLD:   first, changed, fac:   F   F    0.49590163934426235
DEBUG_STATS_RL: Uice pre  iter (SEAICE_LSR  1)  min= -4.89522325595939E-03
DEBUG_STATS_RL: Uice pre  iter (SEAICE_LSR  1)  max=  1.61355517756085E-01
DEBUG_STATS_RL: Uice pre  iter (SEAICE_LSR  1) mean=  5.67051326034390E-02
DEBUG_STATS_RL: Uice pre  iter (SEAICE_LSR  1) S.D.=  5.73816154995710E-02
DEBUG_STATS_RL: Vice pre  iter (SEAICE_LSR  1)  min= -1.51246540995871E-01
DEBUG_STATS_RL: Vice pre  iter (SEAICE_LSR  1)  max=  8.91076561218486E-02
DEBUG_STATS_RL: Vice pre  iter (SEAICE_LSR  1) mean= -1.97403473771025E-02
DEBUG_STATS_RL: Vice pre  iter (SEAICE_LSR  1) S.D.=  3.94189649069486E-02
DEBUG_STATS_RL: Uice pre  iter (SEAICE_LSR  2)  min= -5.42054480415856E-03
DEBUG_STATS_RL: Uice pre  iter (SEAICE_LSR  2)  max=  2.02641844081809E-01
DEBUG_STATS_RL: Uice pre  iter (SEAICE_LSR  2) mean=  6.47762112259594E-02
DEBUG_STATS_RL: Uice pre  iter (SEAICE_LSR  2) S.D.=  6.71608790533829E-02
DEBUG_STATS_RL: Vice pre  iter (SEAICE_LSR  2)  min= -1.45601126352227E-01
DEBUG_STATS_RL: Vice pre  iter (SEAICE_LSR  2)  max=  1.04145470460115E-01
DEBUG_STATS_RL: Vice pre  iter (SEAICE_LSR  2) mean= -2.31827417443087E-02
DEBUG_STATS_RL: Vice pre  iter (SEAICE_LSR  2) S.D.=  4.33109039412625E-02
DEBUG_STATS_RL:                EtaN (DYNAMICS)  min= -1.41751558253177E-01
DEBUG_STATS_RL:                EtaN (DYNAMICS)  max=  3.11997375243884E-01
DEBUG_STATS_RL:                EtaN (DYNAMICS) mean= -2.08585218631821E-03
DEBUG_STATS_RL:                EtaN (DYNAMICS) S.D.=  7.68424535915158E-02
DEBUG_STATS_RL:                Uvel (DYNAMICS)  min= -4.85747443135391E-02
DEBUG_STATS_RL:                Uvel (DYNAMICS)  max=  6.48566534974139E-02
DEBUG_STATS_RL:                Uvel (DYNAMICS) mean=  2.83347825460524E-03
DEBUG_STATS_RL:                Uvel (DYNAMICS) S.D.=  1.04406948546638E-02
DEBUG_STATS_RL:                Vvel (DYNAMICS)  min= -2.93630589501309E-02
DEBUG_STATS_RL:                Vvel (DYNAMICS)  max=  5.51081422495757E-02
DEBUG_STATS_RL:                Vvel (DYNAMICS) mean=  1.89398823345384E-03
DEBUG_STATS_RL:                Vvel (DYNAMICS) S.D.=  1.13685531753010E-02
DEBUG_STATS_RL:                Wvel (DYNAMICS)  min= -1.01835019199985E-04
DEBUG_STATS_RL:                Wvel (DYNAMICS)  max=  2.18299385766789E-04
DEBUG_STATS_RL:                Wvel (DYNAMICS) mean= -3.58449213338453E-07
DEBUG_STATS_RL:                Wvel (DYNAMICS) S.D.=  2.04428902649861E-05
DEBUG_STATS_RL:               Theta (DYNAMICS)  min= -1.93250363389783E+00
DEBUG_STATS_RL:               Theta (DYNAMICS)  max=  1.32631363173882E+01
DEBUG_STATS_RL:               Theta (DYNAMICS) mean=  2.41867029854828E+00
DEBUG_STATS_RL:               Theta (DYNAMICS) S.D.=  2.57126546321788E+00
DEBUG_STATS_RL:                Salt (DYNAMICS)  min=  2.76143299539290E+01
DEBUG_STATS_RL:                Salt (DYNAMICS)  max=  3.54510577106203E+01
DEBUG_STATS_RL:                Salt (DYNAMICS) mean=  3.39375783473310E+01
DEBUG_STATS_RL:                Salt (DYNAMICS) S.D.=  1.15271478316013E+00
DEBUG_STATS_RL:                  Gu (DYNAMICS)  min= -3.31660092548359E-02
DEBUG_STATS_RL:                  Gu (DYNAMICS)  max=  7.71641715782449E-02
DEBUG_STATS_RL:                  Gu (DYNAMICS) mean=  1.79729889203413E-03
DEBUG_STATS_RL:                  Gu (DYNAMICS) S.D.=  1.23549872720675E-02
DEBUG_STATS_RL:                  Gv (DYNAMICS)  min= -6.51102265934725E-02
DEBUG_STATS_RL:                  Gv (DYNAMICS)  max=  4.74792371894017E-02
DEBUG_STATS_RL:                  Gv (DYNAMICS) mean= -3.61268002205930E-03
DEBUG_STATS_RL:                  Gv (DYNAMICS) S.D.=  1.25565096773617E-02
DEBUG_STATS_RL:               GuNm1 (DYNAMICS)  min= -2.57489899416700E-07
DEBUG_STATS_RL:               GuNm1 (DYNAMICS)  max=  1.89368528479175E-07
DEBUG_STATS_RL:               GuNm1 (DYNAMICS) mean=  4.40117074542513E-12
DEBUG_STATS_RL:               GuNm1 (DYNAMICS) S.D.=  4.68821385830648E-08
DEBUG_STATS_RL:               GvNm1 (DYNAMICS)  min= -1.09603640235135E-07
DEBUG_STATS_RL:               GvNm1 (DYNAMICS)  max=  9.62789262154717E-08
DEBUG_STATS_RL:               GvNm1 (DYNAMICS) mean= -8.49526391147090E-10
DEBUG_STATS_RL:               GvNm1 (DYNAMICS) S.D.=  2.55629549792544E-08
DEBUG_STATS_RL:               GtNm1 (DYNAMICS)  min=  0.00000000000000E+00
DEBUG_STATS_RL:               GtNm1 (DYNAMICS)  max=  0.00000000000000E+00
DEBUG_STATS_RL:               GtNm1 (DYNAMICS) mean=  0.00000000000000E+00
DEBUG_STATS_RL:               GtNm1 (DYNAMICS) S.D.=  0.00000000000000E+00
DEBUG_STATS_RL:               GsNm1 (DYNAMICS)  min=  0.00000000000000E+00
DEBUG_STATS_RL:               GsNm1 (DYNAMICS)  max=  0.00000000000000E+00
DEBUG_STATS_RL:               GsNm1 (DYNAMICS) mean=  0.00000000000000E+00
DEBUG_STATS_RL:               GsNm1 (DYNAMICS) S.D.=  0.00000000000000E+00
DEBUG_STATS_RL:    cg2d_b (SOLVE_FOR_PRESSURE)  min= -7.48820843436675E+03
DEBUG_STATS_RL:    cg2d_b (SOLVE_FOR_PRESSURE)  max=  2.19603477106448E+03
DEBUG_STATS_RL:    cg2d_b (SOLVE_FOR_PRESSURE) mean=  2.49163652673208E-13
DEBUG_STATS_RL:    cg2d_b (SOLVE_FOR_PRESSURE) S.D.=  9.20730314173837E+02
 cg2d: Sum(rhs),rhsMax =   4.72885619551278E-15  1.20522264267546E+00
DEBUG_STATS_RL:    cg2d_x (SOLVE_FOR_PRESSURE)  min= -1.31033012419117E+00
DEBUG_STATS_RL:    cg2d_x (SOLVE_FOR_PRESSURE)  max=  3.14089981024959E+00
DEBUG_STATS_RL:    cg2d_x (SOLVE_FOR_PRESSURE) mean= -2.47876044023401E-02
DEBUG_STATS_RL:    cg2d_x (SOLVE_FOR_PRESSURE) S.D.=  7.62604990071653E-01
DEBUG_STATS_RL:          Uvel (THERMODYNAMICS)  min= -4.51228100181745E-02
DEBUG_STATS_RL:          Uvel (THERMODYNAMICS)  max=  8.23946614698021E-02
DEBUG_STATS_RL:          Uvel (THERMODYNAMICS) mean=  4.46006533352165E-03
DEBUG_STATS_RL:          Uvel (THERMODYNAMICS) S.D.=  1.25503402183558E-02
DEBUG_STATS_RL:          Vvel (THERMODYNAMICS)  min= -5.43131072024529E-02
DEBUG_STATS_RL:          Vvel (THERMODYNAMICS)  max=  6.64710959483298E-02
DEBUG_STATS_RL:          Vvel (THERMODYNAMICS) mean=  9.07394962403425E-04
DEBUG_STATS_RL:          Vvel (THERMODYNAMICS) S.D.=  1.42265213439450E-02
DEBUG_STATS_RL:          Wvel (THERMODYNAMICS)  min= -1.50094143875161E-04
DEBUG_STATS_RL:          Wvel (THERMODYNAMICS)  max=  2.67848367720711E-04
DEBUG_STATS_RL:          Wvel (THERMODYNAMICS) mean= -2.83768310638556E-07
DEBUG_STATS_RL:          Wvel (THERMODYNAMICS) S.D.=  2.30755404976197E-05
DEBUG_STATS_RL:         Theta (THERMODYNAMICS)  min= -1.95323356757650E+00
DEBUG_STATS_RL:         Theta (THERMODYNAMICS)  max=  1.32611729219858E+01
DEBUG_STATS_RL:         Theta (THERMODYNAMICS) mean=  2.41624287435038E+00
DEBUG_STATS_RL:         Theta (THERMODYNAMICS) S.D.=  2.57467251754838E+00
DEBUG_STATS_RL:          Salt (THERMODYNAMICS)  min=  2.76192995644599E+01
DEBUG_STATS_RL:          Salt (THERMODYNAMICS)  max=  3.54511687806856E+01
DEBUG_STATS_RL:          Salt (THERMODYNAMICS) mean=  3.39368869963868E+01
DEBUG_STATS_RL:          Salt (THERMODYNAMICS) S.D.=  1.15395653842057E+00
DEBUG_STATS_RL:         GtNm1 (THERMODYNAMICS)  min=  0.00000000000000E+00
DEBUG_STATS_RL:         GtNm1 (THERMODYNAMICS)  max=  0.00000000000000E+00
DEBUG_STATS_RL:         GtNm1 (THERMODYNAMICS) mean=  0.00000000000000E+00
DEBUG_STATS_RL:         GtNm1 (THERMODYNAMICS) S.D.=  0.00000000000000E+00
DEBUG_STATS_RL:         GsNm1 (THERMODYNAMICS)  min=  0.00000000000000E+00
DEBUG_STATS_RL:         GsNm1 (THERMODYNAMICS)  max=  0.00000000000000E+00
DEBUG_STATS_RL:         GsNm1 (THERMODYNAMICS) mean=  0.00000000000000E+00
DEBUG_STATS_RL:         GsNm1 (THERMODYNAMICS) S.D.=  0.00000000000000E+00
(PID.TID 0000.0001)  MDS_WRITE_FIELD: it,rec,kS,kL,kH=       1     5   1   1   1 file=m_sst_step.0000000001
(PID.TID 0000.0001)  MDS_READ_FIELD: opening global file: xx_atemp.effective.0000000001.data
(PID.TID 0000.0001) EXF_SET_FLD: processing field "climsss",  file: SSS_monthly.labsea1979
(PID.TID 0000.0001) EXF_SET_FLD:   myIter, count0, count1:         4      1      2
(PID.TID 0000.0001) EXF_SET_FLD:   first, changed, fac:   F   F    0.49453551912568305
(PID.TID 0000.0001) EXF_SET_FLD: processing field "uwind",  file: u10m.labsea1979
(PID.TID 0000.0001) EXF_SET_FLD:   myIter, count0, count1:         4      1      2
(PID.TID 0000.0001) EXF_SET_FLD:   first, changed, fac:   F   F    0.49453551912568305
(PID.TID 0000.0001) EXF_SET_FLD: processing field "vwind",  file: v10m.labsea1979
(PID.TID 0000.0001) EXF_SET_FLD:   myIter, count0, count1:         4      1      2
(PID.TID 0000.0001) EXF_SET_FLD:   first, changed, fac:   F   F    0.49453551912568305
(PID.TID 0000.0001) EXF_SET_FLD: processing field "atemp",  file: tair.labsea1979
(PID.TID 0000.0001) EXF_SET_FLD:   myIter, count0, count1:         4      1      2
(PID.TID 0000.0001) EXF_SET_FLD:   first, changed, fac:   F   F    0.49453551912568305
(PID.TID 0000.0001) EXF_SET_FLD: processing field "aqh",  file: qa.labsea1979
(PID.TID 0000.0001) EXF_SET_FLD:   myIter, count0, count1:         4      1      2
(PID.TID 0000.0001) EXF_SET_FLD:   first, changed, fac:   F   F    0.49453551912568305
(PID.TID 0000.0001) EXF_SET_FLD: processing field "precip",  file: prate.labsea1979
(PID.TID 0000.0001) EXF_SET_FLD:   myIter, count0, count1:         4      1      2
(PID.TID 0000.0001) EXF_SET_FLD:   first, changed, fac:   F   F    0.49453551912568305
(PID.TID 0000.0001) EXF_SET_FLD: processing field "swdown",  file: fsh.labsea1979
(PID.TID 0000.0001) EXF_SET_FLD:   myIter, count0, count1:         4      1      2
(PID.TID 0000.0001) EXF_SET_FLD:   first, changed, fac:   F   F    0.49453551912568305
(PID.TID 0000.0001) EXF_SET_FLD: processing field "lwdown",  file: flo.labsea1979
(PID.TID 0000.0001) EXF_SET_FLD:   myIter, count0, count1:         4      1      2
(PID.TID 0000.0001) EXF_SET_FLD:   first, changed, fac:   F   F    0.49453551912568305
DEBUG_STATS_RL: Uice pre  iter (SEAICE_LSR  1)  min= -6.64884179984309E-03
DEBUG_STATS_RL: Uice pre  iter (SEAICE_LSR  1)  max=  1.92542735136310E-01
DEBUG_STATS_RL: Uice pre  iter (SEAICE_LSR  1) mean=  6.47686246163280E-02
DEBUG_STATS_RL: Uice pre  iter (SEAICE_LSR  1) S.D.=  6.59732959910228E-02
DEBUG_STATS_RL: Vice pre  iter (SEAICE_LSR  1)  min= -1.58345599530555E-01
DEBUG_STATS_RL: Vice pre  iter (SEAICE_LSR  1)  max=  1.04255589228155E-01
DEBUG_STATS_RL: Vice pre  iter (SEAICE_LSR  1) mean= -2.61122078454320E-02
DEBUG_STATS_RL: Vice pre  iter (SEAICE_LSR  1) S.D.=  4.54292968520858E-02
DEBUG_STATS_RL: Uice pre  iter (SEAICE_LSR  2)  min= -7.39582706169603E-03
DEBUG_STATS_RL: Uice pre  iter (SEAICE_LSR  2)  max=  2.22032103672184E-01
DEBUG_STATS_RL: Uice pre  iter (SEAICE_LSR  2) mean=  6.99701895633166E-02
DEBUG_STATS_RL: Uice pre  iter (SEAICE_LSR  2) S.D.=  7.26089122440337E-02
DEBUG_STATS_RL: Vice pre  iter (SEAICE_LSR  2)  min= -1.71770480186518E-01
DEBUG_STATS_RL: Vice pre  iter (SEAICE_LSR  2)  max=  1.08496327276558E-01
DEBUG_STATS_RL: Vice pre  iter (SEAICE_LSR  2) mean= -3.10609864818433E-02
DEBUG_STATS_RL: Vice pre  iter (SEAICE_LSR  2) S.D.=  4.99863315300940E-02
DEBUG_STATS_RL:                EtaN (DYNAMICS)  min= -1.33494653835850E-01
DEBUG_STATS_RL:                EtaN (DYNAMICS)  max=  3.19990607833407E-01
DEBUG_STATS_RL:                EtaN (DYNAMICS) mean= -2.52532747894578E-03
DEBUG_STATS_RL:                EtaN (DYNAMICS) S.D.=  7.76931608940516E-02
DEBUG_STATS_RL:                Uvel (DYNAMICS)  min= -4.51228100181745E-02
DEBUG_STATS_RL:                Uvel (DYNAMICS)  max=  8.23946614698021E-02
DEBUG_STATS_RL:                Uvel (DYNAMICS) mean=  4.46006533352165E-03
DEBUG_STATS_RL:                Uvel (DYNAMICS) S.D.=  1.25503402183558E-02
DEBUG_STATS_RL:                Vvel (DYNAMICS)  min= -5.43131072024529E-02
DEBUG_STATS_RL:                Vvel (DYNAMICS)  max=  6.64710959483298E-02
DEBUG_STATS_RL:                Vvel (DYNAMICS) mean=  9.07394962403425E-04
DEBUG_STATS_RL:                Vvel (DYNAMICS) S.D.=  1.42265213439450E-02
DEBUG_STATS_RL:                Wvel (DYNAMICS)  min= -1.50094143875161E-04
DEBUG_STATS_RL:                Wvel (DYNAMICS)  max=  2.67848367720711E-04
DEBUG_STATS_RL:                Wvel (DYNAMICS) mean= -2.83768310638556E-07
DEBUG_STATS_RL:                Wvel (DYNAMICS) S.D.=  2.30755404976197E-05
DEBUG_STATS_RL:               Theta (DYNAMICS)  min= -1.95323356757650E+00
DEBUG_STATS_RL:               Theta (DYNAMICS)  max=  1.32611729219858E+01
DEBUG_STATS_RL:               Theta (DYNAMICS) mean=  2.41624287435038E+00
DEBUG_STATS_RL:               Theta (DYNAMICS) S.D.=  2.57467251754838E+00
DEBUG_STATS_RL:                Salt (DYNAMICS)  min=  2.76192995644599E+01
DEBUG_STATS_RL:                Salt (DYNAMICS)  max=  3.54511687806856E+01
DEBUG_STATS_RL:                Salt (DYNAMICS) mean=  3.39368869963868E+01
DEBUG_STATS_RL:                Salt (DYNAMICS) S.D.=  1.15395653842057E+00
DEBUG_STATS_RL:                  Gu (DYNAMICS)  min= -3.06969616936011E-02
DEBUG_STATS_RL:                  Gu (DYNAMICS)  max=  9.72073114926337E-02
DEBUG_STATS_RL:                  Gu (DYNAMICS) mean=  3.10151082317755E-03
DEBUG_STATS_RL:                  Gu (DYNAMICS) S.D.=  1.41052551008718E-02
DEBUG_STATS_RL:                  Gv (DYNAMICS)  min= -9.53132079806526E-02
DEBUG_STATS_RL:                  Gv (DYNAMICS)  max=  5.33682068181779E-02
DEBUG_STATS_RL:                  Gv (DYNAMICS) mean= -5.06243016753950E-03
DEBUG_STATS_RL:                  Gv (DYNAMICS) S.D.=  1.53588463679154E-02
DEBUG_STATS_RL:               GuNm1 (DYNAMICS)  min= -2.35357489189923E-07
DEBUG_STATS_RL:               GuNm1 (DYNAMICS)  max=  1.71456102315463E-07
DEBUG_STATS_RL:               GuNm1 (DYNAMICS) mean= -2.01481983922268E-09
DEBUG_STATS_RL:               GuNm1 (DYNAMICS) S.D.=  4.45062316312431E-08
DEBUG_STATS_RL:               GvNm1 (DYNAMICS)  min= -1.49109605789105E-07
DEBUG_STATS_RL:               GvNm1 (DYNAMICS)  max=  1.05797935490743E-07
DEBUG_STATS_RL:               GvNm1 (DYNAMICS) mean= -1.04937902583340E-09
DEBUG_STATS_RL:               GvNm1 (DYNAMICS) S.D.=  3.09410614929441E-08
DEBUG_STATS_RL:               GtNm1 (DYNAMICS)  min=  0.00000000000000E+00
DEBUG_STATS_RL:               GtNm1 (DYNAMICS)  max=  0.00000000000000E+00
DEBUG_STATS_RL:               GtNm1 (DYNAMICS) mean=  0.00000000000000E+00
DEBUG_STATS_RL:               GtNm1 (DYNAMICS) S.D.=  0.00000000000000E+00
DEBUG_STATS_RL:               GsNm1 (DYNAMICS)  min=  0.00000000000000E+00
DEBUG_STATS_RL:               GsNm1 (DYNAMICS)  max=  0.00000000000000E+00
DEBUG_STATS_RL:               GsNm1 (DYNAMICS) mean=  0.00000000000000E+00
DEBUG_STATS_RL:               GsNm1 (DYNAMICS) S.D.=  0.00000000000000E+00
DEBUG_STATS_RL:    cg2d_b (SOLVE_FOR_PRESSURE)  min= -7.47095948274204E+03
DEBUG_STATS_RL:    cg2d_b (SOLVE_FOR_PRESSURE)  max=  2.18029189648781E+03
DEBUG_STATS_RL:    cg2d_b (SOLVE_FOR_PRESSURE) mean=  3.89187941133666E-13
DEBUG_STATS_RL:    cg2d_b (SOLVE_FOR_PRESSURE) S.D.=  9.11464014140556E+02
 cg2d: Sum(rhs),rhsMax =   6.92501611609941E-15  1.20244643428827E+00
DEBUG_STATS_RL:    cg2d_x (SOLVE_FOR_PRESSURE)  min= -1.27317826454320E+00
DEBUG_STATS_RL:    cg2d_x (SOLVE_FOR_PRESSURE)  max=  3.19622316797744E+00
DEBUG_STATS_RL:    cg2d_x (SOLVE_FOR_PRESSURE) mean= -2.95294169357247E-02
DEBUG_STATS_RL:    cg2d_x (SOLVE_FOR_PRESSURE) S.D.=  7.40273720372500E-01
DEBUG_STATS_RL:          Uvel (THERMODYNAMICS)  min= -3.64296443204310E-02
DEBUG_STATS_RL:          Uvel (THERMODYNAMICS)  max=  8.91662112566484E-02
DEBUG_STATS_RL:          Uvel (THERMODYNAMICS) mean=  5.18186102505453E-03
DEBUG_STATS_RL:          Uvel (THERMODYNAMICS) S.D.=  1.36791834404116E-02
DEBUG_STATS_RL:          Vvel (THERMODYNAMICS)  min= -8.48427067731436E-02
DEBUG_STATS_RL:          Vvel (THERMODYNAMICS)  max=  7.15709637633442E-02
DEBUG_STATS_RL:          Vvel (THERMODYNAMICS) mean= -6.25663991251734E-04
DEBUG_STATS_RL:          Vvel (THERMODYNAMICS) S.D.=  1.65568599029288E-02
DEBUG_STATS_RL:          Wvel (THERMODYNAMICS)  min= -2.02998023749463E-04
DEBUG_STATS_RL:          Wvel (THERMODYNAMICS)  max=  3.07634744219632E-04
DEBUG_STATS_RL:          Wvel (THERMODYNAMICS) mean= -2.14485636605729E-07
DEBUG_STATS_RL:          Wvel (THERMODYNAMICS) S.D.=  2.56514188295238E-05
DEBUG_STATS_RL:         Theta (THERMODYNAMICS)  min= -1.95891909892377E+00
DEBUG_STATS_RL:         Theta (THERMODYNAMICS)  max=  1.32575107273067E+01
DEBUG_STATS_RL:         Theta (THERMODYNAMICS) mean=  2.41560973729717E+00
DEBUG_STATS_RL:         Theta (THERMODYNAMICS) S.D.=  2.57506629522921E+00
DEBUG_STATS_RL:          Salt (THERMODYNAMICS)  min=  2.76241835718781E+01
DEBUG_STATS_RL:          Salt (THERMODYNAMICS)  max=  3.54512322319690E+01
DEBUG_STATS_RL:          Salt (THERMODYNAMICS) mean=  3.39367610972833E+01
DEBUG_STATS_RL:          Salt (THERMODYNAMICS) S.D.=  1.15400523729607E+00
DEBUG_STATS_RL:         GtNm1 (THERMODYNAMICS)  min=  0.00000000000000E+00
DEBUG_STATS_RL:         GtNm1 (THERMODYNAMICS)  max=  0.00000000000000E+00
DEBUG_STATS_RL:         GtNm1 (THERMODYNAMICS) mean=  0.00000000000000E+00
DEBUG_STATS_RL:         GtNm1 (THERMODYNAMICS) S.D.=  0.00000000000000E+00
DEBUG_STATS_RL:         GsNm1 (THERMODYNAMICS)  min=  0.00000000000000E+00
DEBUG_STATS_RL:         GsNm1 (THERMODYNAMICS)  max=  0.00000000000000E+00
DEBUG_STATS_RL:         GsNm1 (THERMODYNAMICS) mean=  0.00000000000000E+00
DEBUG_STATS_RL:         GsNm1 (THERMODYNAMICS) S.D.=  0.00000000000000E+00
(PID.TID 0000.0001)  MDS_WRITE_FIELD: it,rec,kS,kL,kH=       1     6   1   1   1 file=m_sst_step.0000000001
(PID.TID 0000.0001)  MDS_READ_FIELD: opening global file: xx_atemp.effective.0000000001.data
(PID.TID 0000.0001) EXF_SET_FLD: processing field "climsss",  file: SSS_monthly.labsea1979
(PID.TID 0000.0001) EXF_SET_FLD:   myIter, count0, count1:         5      1      2
(PID.TID 0000.0001) EXF_SET_FLD:   first, changed, fac:   F   F    0.49316939890710387
(PID.TID 0000.0001) EXF_SET_FLD: processing field "uwind",  file: u10m.labsea1979
(PID.TID 0000.0001) EXF_SET_FLD:   myIter, count0, count1:         5      1      2
(PID.TID 0000.0001) EXF_SET_FLD:   first, changed, fac:   F   F    0.49316939890710387
(PID.TID 0000.0001) EXF_SET_FLD: processing field "vwind",  file: v10m.labsea1979
(PID.TID 0000.0001) EXF_SET_FLD:   myIter, count0, count1:         5      1      2
(PID.TID 0000.0001) EXF_SET_FLD:   first, changed, fac:   F   F    0.49316939890710387
(PID.TID 0000.0001) EXF_SET_FLD: processing field "atemp",  file: tair.labsea1979
(PID.TID 0000.0001) EXF_SET_FLD:   myIter, count0, count1:         5      1      2
(PID.TID 0000.0001) EXF_SET_FLD:   first, changed, fac:   F   F    0.49316939890710387
(PID.TID 0000.0001) EXF_SET_FLD: processing field "aqh",  file: qa.labsea1979
(PID.TID 0000.0001) EXF_SET_FLD:   myIter, count0, count1:         5      1      2
(PID.TID 0000.0001) EXF_SET_FLD:   first, changed, fac:   F   F    0.49316939890710387
(PID.TID 0000.0001) EXF_SET_FLD: processing field "precip",  file: prate.labsea1979
(PID.TID 0000.0001) EXF_SET_FLD:   myIter, count0, count1:         5      1      2
(PID.TID 0000.0001) EXF_SET_FLD:   first, changed, fac:   F   F    0.49316939890710387
(PID.TID 0000.0001) EXF_SET_FLD: processing field "swdown",  file: fsh.labsea1979
(PID.TID 0000.0001) EXF_SET_FLD:   myIter, count0, count1:         5      1      2
(PID.TID 0000.0001) EXF_SET_FLD:   first, changed, fac:   F   F    0.49316939890710387
(PID.TID 0000.0001) EXF_SET_FLD: processing field "lwdown",  file: flo.labsea1979
(PID.TID 0000.0001) EXF_SET_FLD:   myIter, count0, count1:         5      1      2
(PID.TID 0000.0001) EXF_SET_FLD:   first, changed, fac:   F   F    0.49316939890710387
DEBUG_STATS_RL: Uice pre  iter (SEAICE_LSR  1)  min= -9.02121933428203E-03
DEBUG_STATS_RL: Uice pre  iter (SEAICE_LSR  1)  max=  2.19445684647109E-01
DEBUG_STATS_RL: Uice pre  iter (SEAICE_LSR  1) mean=  6.96639305502244E-02
DEBUG_STATS_RL: Uice pre  iter (SEAICE_LSR  1) S.D.=  7.25590715280347E-02
DEBUG_STATS_RL: Vice pre  iter (SEAICE_LSR  1)  min= -1.73112057819560E-01
DEBUG_STATS_RL: Vice pre  iter (SEAICE_LSR  1)  max=  1.05174802576007E-01
DEBUG_STATS_RL: Vice pre  iter (SEAICE_LSR  1) mean= -3.44957645455223E-02
DEBUG_STATS_RL: Vice pre  iter (SEAICE_LSR  1) S.D.=  5.17027322842225E-02
DEBUG_STATS_RL: Uice pre  iter (SEAICE_LSR  2)  min= -9.93295031152267E-03
DEBUG_STATS_RL: Uice pre  iter (SEAICE_LSR  2)  max=  2.37649472779151E-01
DEBUG_STATS_RL: Uice pre  iter (SEAICE_LSR  2) mean=  7.08960993522702E-02
DEBUG_STATS_RL: Uice pre  iter (SEAICE_LSR  2) S.D.=  7.51814019583941E-02
DEBUG_STATS_RL: Vice pre  iter (SEAICE_LSR  2)  min= -1.73458139241623E-01
DEBUG_STATS_RL: Vice pre  iter (SEAICE_LSR  2)  max=  1.02503634704981E-01
DEBUG_STATS_RL: Vice pre  iter (SEAICE_LSR  2) mean= -3.89801386768827E-02
DEBUG_STATS_RL: Vice pre  iter (SEAICE_LSR  2) S.D.=  5.44920749395062E-02
DEBUG_STATS_RL:                EtaN (DYNAMICS)  min= -1.29709672821142E-01
DEBUG_STATS_RL:                EtaN (DYNAMICS)  max=  3.25626876398533E-01
DEBUG_STATS_RL:                EtaN (DYNAMICS) mean= -3.00841690123117E-03
DEBUG_STATS_RL:                EtaN (DYNAMICS) S.D.=  7.54180814593606E-02
DEBUG_STATS_RL:                Uvel (DYNAMICS)  min= -3.64296443204310E-02
DEBUG_STATS_RL:                Uvel (DYNAMICS)  max=  8.91662112566484E-02
DEBUG_STATS_RL:                Uvel (DYNAMICS) mean=  5.18186102505453E-03
DEBUG_STATS_RL:                Uvel (DYNAMICS) S.D.=  1.36791834404116E-02
DEBUG_STATS_RL:                Vvel (DYNAMICS)  min= -8.48427067731436E-02
DEBUG_STATS_RL:                Vvel (DYNAMICS)  max=  7.15709637633442E-02
DEBUG_STATS_RL:                Vvel (DYNAMICS) mean= -6.25663991251734E-04
DEBUG_STATS_RL:                Vvel (DYNAMICS) S.D.=  1.65568599029288E-02
DEBUG_STATS_RL:                Wvel (DYNAMICS)  min= -2.02998023749463E-04
DEBUG_STATS_RL:                Wvel (DYNAMICS)  max=  3.07634744219632E-04
DEBUG_STATS_RL:                Wvel (DYNAMICS) mean= -2.14485636605729E-07
DEBUG_STATS_RL:                Wvel (DYNAMICS) S.D.=  2.56514188295238E-05
DEBUG_STATS_RL:               Theta (DYNAMICS)  min= -1.95891909892377E+00
DEBUG_STATS_RL:               Theta (DYNAMICS)  max=  1.32575107273067E+01
DEBUG_STATS_RL:               Theta (DYNAMICS) mean=  2.41560973729717E+00
DEBUG_STATS_RL:               Theta (DYNAMICS) S.D.=  2.57506629522921E+00
DEBUG_STATS_RL:                Salt (DYNAMICS)  min=  2.76241835718781E+01
DEBUG_STATS_RL:                Salt (DYNAMICS)  max=  3.54512322319690E+01
DEBUG_STATS_RL:                Salt (DYNAMICS) mean=  3.39367610972833E+01
DEBUG_STATS_RL:                Salt (DYNAMICS) S.D.=  1.15400523729607E+00
DEBUG_STATS_RL:                  Gu (DYNAMICS)  min= -3.40661284879217E-02
DEBUG_STATS_RL:                  Gu (DYNAMICS)  max=  1.09592409505600E-01
DEBUG_STATS_RL:                  Gu (DYNAMICS) mean=  3.43340148231603E-03
DEBUG_STATS_RL:                  Gu (DYNAMICS) S.D.=  1.52106643070935E-02
DEBUG_STATS_RL:                  Gv (DYNAMICS)  min= -1.19743996000499E-01
DEBUG_STATS_RL:                  Gv (DYNAMICS)  max=  5.31755908727335E-02
DEBUG_STATS_RL:                  Gv (DYNAMICS) mean= -6.43607759845589E-03
DEBUG_STATS_RL:                  Gv (DYNAMICS) S.D.=  1.74595586593093E-02
DEBUG_STATS_RL:               GuNm1 (DYNAMICS)  min= -2.94347299884313E-07
DEBUG_STATS_RL:               GuNm1 (DYNAMICS)  max=  1.78770581560364E-07
DEBUG_STATS_RL:               GuNm1 (DYNAMICS) mean= -3.06311171945835E-09
DEBUG_STATS_RL:               GuNm1 (DYNAMICS) S.D.=  4.19614199163358E-08
DEBUG_STATS_RL:               GvNm1 (DYNAMICS)  min= -1.82273635415882E-07
DEBUG_STATS_RL:               GvNm1 (DYNAMICS)  max=  1.24273330978591E-07
DEBUG_STATS_RL:               GvNm1 (DYNAMICS) mean= -1.05360009951995E-09
DEBUG_STATS_RL:               GvNm1 (DYNAMICS) S.D.=  3.58773704868050E-08
DEBUG_STATS_RL:               GtNm1 (DYNAMICS)  min=  0.00000000000000E+00
DEBUG_STATS_RL:               GtNm1 (DYNAMICS)  max=  0.00000000000000E+00
DEBUG_STATS_RL:               GtNm1 (DYNAMICS) mean=  0.00000000000000E+00
DEBUG_STATS_RL:               GtNm1 (DYNAMICS) S.D.=  0.00000000000000E+00
DEBUG_STATS_RL:               GsNm1 (DYNAMICS)  min=  0.00000000000000E+00
DEBUG_STATS_RL:               GsNm1 (DYNAMICS)  max=  0.00000000000000E+00
DEBUG_STATS_RL:               GsNm1 (DYNAMICS) mean=  0.00000000000000E+00
DEBUG_STATS_RL:               GsNm1 (DYNAMICS) S.D.=  0.00000000000000E+00
DEBUG_STATS_RL:    cg2d_b (SOLVE_FOR_PRESSURE)  min= -7.45833771571473E+03
DEBUG_STATS_RL:    cg2d_b (SOLVE_FOR_PRESSURE)  max=  2.17494903027736E+03
DEBUG_STATS_RL:    cg2d_b (SOLVE_FOR_PRESSURE) mean=  5.10453901370056E-13
DEBUG_STATS_RL:    cg2d_b (SOLVE_FOR_PRESSURE) S.D.=  9.06377010650298E+02
 cg2d: Sum(rhs),rhsMax =   1.02522157430229E-14  1.20041496847836E+00
DEBUG_STATS_RL:    cg2d_x (SOLVE_FOR_PRESSURE)  min= -1.23196163368068E+00
DEBUG_STATS_RL:    cg2d_x (SOLVE_FOR_PRESSURE)  max=  3.23727429689923E+00
DEBUG_STATS_RL:    cg2d_x (SOLVE_FOR_PRESSURE) mean= -3.45194761148912E-02
DEBUG_STATS_RL:    cg2d_x (SOLVE_FOR_PRESSURE) S.D.=  7.10912240392310E-01
DEBUG_STATS_RL:          Uvel (THERMODYNAMICS)  min= -3.59096386964117E-02
DEBUG_STATS_RL:          Uvel (THERMODYNAMICS)  max=  1.01288605318195E-01
DEBUG_STATS_RL:          Uvel (THERMODYNAMICS) mean=  5.06442107691516E-03
DEBUG_STATS_RL:          Uvel (THERMODYNAMICS) S.D.=  1.40087544095663E-02
DEBUG_STATS_RL:          Vvel (THERMODYNAMICS)  min= -1.10756263988801E-01
DEBUG_STATS_RL:          Vvel (THERMODYNAMICS)  max=  7.07208418107744E-02
DEBUG_STATS_RL:          Vvel (THERMODYNAMICS) mean= -2.17557054828494E-03
DEBUG_STATS_RL:          Vvel (THERMODYNAMICS) S.D.=  1.80912833066364E-02
DEBUG_STATS_RL:          Wvel (THERMODYNAMICS)  min= -2.43811460414301E-04
DEBUG_STATS_RL:          Wvel (THERMODYNAMICS)  max=  3.28816353261801E-04
DEBUG_STATS_RL:          Wvel (THERMODYNAMICS) mean= -1.37923543343282E-07
DEBUG_STATS_RL:          Wvel (THERMODYNAMICS) S.D.=  2.75149300864472E-05
DEBUG_STATS_RL:         Theta (THERMODYNAMICS)  min= -1.96015217723741E+00
DEBUG_STATS_RL:         Theta (THERMODYNAMICS)  max=  1.32512671183370E+01
DEBUG_STATS_RL:         Theta (THERMODYNAMICS) mean=  2.41531606071968E+00
DEBUG_STATS_RL:         Theta (THERMODYNAMICS) S.D.=  2.57483151675911E+00
DEBUG_STATS_RL:          Salt (THERMODYNAMICS)  min=  2.76290307531745E+01
DEBUG_STATS_RL:          Salt (THERMODYNAMICS)  max=  3.54512307060718E+01
DEBUG_STATS_RL:          Salt (THERMODYNAMICS) mean=  3.39367446276244E+01
DEBUG_STATS_RL:          Salt (THERMODYNAMICS) S.D.=  1.15382313156637E+00
DEBUG_STATS_RL:         GtNm1 (THERMODYNAMICS)  min=  0.00000000000000E+00
DEBUG_STATS_RL:         GtNm1 (THERMODYNAMICS)  max=  0.00000000000000E+00
DEBUG_STATS_RL:         GtNm1 (THERMODYNAMICS) mean=  0.00000000000000E+00
DEBUG_STATS_RL:         GtNm1 (THERMODYNAMICS) S.D.=  0.00000000000000E+00
DEBUG_STATS_RL:         GsNm1 (THERMODYNAMICS)  min=  0.00000000000000E+00
DEBUG_STATS_RL:         GsNm1 (THERMODYNAMICS)  max=  0.00000000000000E+00
DEBUG_STATS_RL:         GsNm1 (THERMODYNAMICS) mean=  0.00000000000000E+00
DEBUG_STATS_RL:         GsNm1 (THERMODYNAMICS) S.D.=  0.00000000000000E+00
(PID.TID 0000.0001)  MDS_WRITE_FIELD: it,rec,kS,kL,kH=       1     7   1   1   1 file=m_sst_step.0000000001
(PID.TID 0000.0001)  MDS_READ_FIELD: opening global file: xx_atemp.effective.0000000001.data
(PID.TID 0000.0001) EXF_SET_FLD: processing field "climsss",  file: SSS_monthly.labsea1979
(PID.TID 0000.0001) EXF_SET_FLD:   myIter, count0, count1:         6      1      2
(PID.TID 0000.0001) EXF_SET_FLD:   first, changed, fac:   F   F    0.49180327868852458
(PID.TID 0000.0001) EXF_SET_FLD: processing field "uwind",  file: u10m.labsea1979
(PID.TID 0000.0001) EXF_SET_FLD:   myIter, count0, count1:         6      1      2
(PID.TID 0000.0001) EXF_SET_FLD:   first, changed, fac:   F   F    0.49180327868852458
(PID.TID 0000.0001) EXF_SET_FLD: processing field "vwind",  file: v10m.labsea1979
(PID.TID 0000.0001) EXF_SET_FLD:   myIter, count0, count1:         6      1      2
(PID.TID 0000.0001) EXF_SET_FLD:   first, changed, fac:   F   F    0.49180327868852458
(PID.TID 0000.0001) EXF_SET_FLD: processing field "atemp",  file: tair.labsea1979
(PID.TID 0000.0001) EXF_SET_FLD:   myIter, count0, count1:         6      1      2
(PID.TID 0000.0001) EXF_SET_FLD:   first, changed, fac:   F   F    0.49180327868852458
(PID.TID 0000.0001) EXF_SET_FLD: processing field "aqh",  file: qa.labsea1979
(PID.TID 0000.0001) EXF_SET_FLD:   myIter, count0, count1:         6      1      2
(PID.TID 0000.0001) EXF_SET_FLD:   first, changed, fac:   F   F    0.49180327868852458
(PID.TID 0000.0001) EXF_SET_FLD: processing field "precip",  file: prate.labsea1979
(PID.TID 0000.0001) EXF_SET_FLD:   myIter, count0, count1:         6      1      2
(PID.TID 0000.0001) EXF_SET_FLD:   first, changed, fac:   F   F    0.49180327868852458
(PID.TID 0000.0001) EXF_SET_FLD: processing field "swdown",  file: fsh.labsea1979
(PID.TID 0000.0001) EXF_SET_FLD:   myIter, count0, count1:         6      1      2
(PID.TID 0000.0001) EXF_SET_FLD:   first, changed, fac:   F   F    0.49180327868852458
(PID.TID 0000.0001) EXF_SET_FLD: processing field "lwdown",  file: flo.labsea1979
(PID.TID 0000.0001) EXF_SET_FLD:   myIter, count0, count1:         6      1      2
(PID.TID 0000.0001) EXF_SET_FLD:   first, changed, fac:   F   F    0.49180327868852458
DEBUG_STATS_RL: Uice pre  iter (SEAICE_LSR  1)  min= -1.19106759196623E-02
DEBUG_STATS_RL: Uice pre  iter (SEAICE_LSR  1)  max=  2.40859973799500E-01
DEBUG_STATS_RL: Uice pre  iter (SEAICE_LSR  1) mean=  7.02597534860903E-02
DEBUG_STATS_RL: Uice pre  iter (SEAICE_LSR  1) S.D.=  7.57773428259752E-02
DEBUG_STATS_RL: Vice pre  iter (SEAICE_LSR  1)  min= -1.74132342678203E-01
DEBUG_STATS_RL: Vice pre  iter (SEAICE_LSR  1)  max=  9.66358613081392E-02
DEBUG_STATS_RL: Vice pre  iter (SEAICE_LSR  1) mean= -4.28491368242803E-02
DEBUG_STATS_RL: Vice pre  iter (SEAICE_LSR  1) S.D.=  5.63763392291497E-02
DEBUG_STATS_RL: Uice pre  iter (SEAICE_LSR  2)  min= -1.30564509125768E-02
DEBUG_STATS_RL: Uice pre  iter (SEAICE_LSR  2)  max=  2.47901039964918E-01
DEBUG_STATS_RL: Uice pre  iter (SEAICE_LSR  2) mean=  6.80717062410339E-02
DEBUG_STATS_RL: Uice pre  iter (SEAICE_LSR  2) S.D.=  7.48548542542541E-02
DEBUG_STATS_RL: Vice pre  iter (SEAICE_LSR  2)  min= -1.68314830999122E-01
DEBUG_STATS_RL: Vice pre  iter (SEAICE_LSR  2)  max=  8.87290074915896E-02
DEBUG_STATS_RL: Vice pre  iter (SEAICE_LSR  2) mean= -4.61137817409416E-02
DEBUG_STATS_RL: Vice pre  iter (SEAICE_LSR  2) S.D.=  5.74118961796227E-02
DEBUG_STATS_RL:                EtaN (DYNAMICS)  min= -1.25510578434398E-01
DEBUG_STATS_RL:                EtaN (DYNAMICS)  max=  3.29809109672279E-01
DEBUG_STATS_RL:                EtaN (DYNAMICS) mean= -3.51679735470996E-03
DEBUG_STATS_RL:                EtaN (DYNAMICS) S.D.=  7.24267737471280E-02
DEBUG_STATS_RL:                Uvel (DYNAMICS)  min= -3.59096386964117E-02
DEBUG_STATS_RL:                Uvel (DYNAMICS)  max=  1.01288605318195E-01
DEBUG_STATS_RL:                Uvel (DYNAMICS) mean=  5.06442107691516E-03
DEBUG_STATS_RL:                Uvel (DYNAMICS) S.D.=  1.40087544095663E-02
DEBUG_STATS_RL:                Vvel (DYNAMICS)  min= -1.10756263988801E-01
DEBUG_STATS_RL:                Vvel (DYNAMICS)  max=  7.07208418107744E-02
DEBUG_STATS_RL:                Vvel (DYNAMICS) mean= -2.17557054828494E-03
DEBUG_STATS_RL:                Vvel (DYNAMICS) S.D.=  1.80912833066364E-02
DEBUG_STATS_RL:                Wvel (DYNAMICS)  min= -2.43811460414301E-04
DEBUG_STATS_RL:                Wvel (DYNAMICS)  max=  3.28816353261801E-04
DEBUG_STATS_RL:                Wvel (DYNAMICS) mean= -1.37923543343282E-07
DEBUG_STATS_RL:                Wvel (DYNAMICS) S.D.=  2.75149300864472E-05
DEBUG_STATS_RL:               Theta (DYNAMICS)  min= -1.96015217723741E+00
DEBUG_STATS_RL:               Theta (DYNAMICS)  max=  1.32512671183370E+01
DEBUG_STATS_RL:               Theta (DYNAMICS) mean=  2.41531606071968E+00
DEBUG_STATS_RL:               Theta (DYNAMICS) S.D.=  2.57483151675911E+00
DEBUG_STATS_RL:                Salt (DYNAMICS)  min=  2.76290307531745E+01
DEBUG_STATS_RL:                Salt (DYNAMICS)  max=  3.54512307060718E+01
DEBUG_STATS_RL:                Salt (DYNAMICS) mean=  3.39367446276244E+01
DEBUG_STATS_RL:                Salt (DYNAMICS) S.D.=  1.15382313156637E+00
DEBUG_STATS_RL:                  Gu (DYNAMICS)  min= -4.45840116891194E-02
DEBUG_STATS_RL:                  Gu (DYNAMICS)  max=  1.13252404039499E-01
DEBUG_STATS_RL:                  Gu (DYNAMICS) mean=  3.02808241161184E-03
DEBUG_STATS_RL:                  Gu (DYNAMICS) S.D.=  1.59063121238920E-02
DEBUG_STATS_RL:                  Gv (DYNAMICS)  min= -1.34630447324917E-01
DEBUG_STATS_RL:                  Gv (DYNAMICS)  max=  4.81174890382834E-02
DEBUG_STATS_RL:                  Gv (DYNAMICS) mean= -7.41639241987874E-03
DEBUG_STATS_RL:                  Gv (DYNAMICS) S.D.=  1.85638365104649E-02
DEBUG_STATS_RL:               GuNm1 (DYNAMICS)  min= -3.33271036892913E-07
DEBUG_STATS_RL:               GuNm1 (DYNAMICS)  max=  1.87479663955262E-07
DEBUG_STATS_RL:               GuNm1 (DYNAMICS) mean= -3.31200046770321E-09
DEBUG_STATS_RL:               GuNm1 (DYNAMICS) S.D.=  4.08419141882003E-08
DEBUG_STATS_RL:               GvNm1 (DYNAMICS)  min= -2.04912919624493E-07
DEBUG_STATS_RL:               GvNm1 (DYNAMICS)  max=  1.56710147054453E-07
DEBUG_STATS_RL:               GvNm1 (DYNAMICS) mean= -8.96938696731821E-10
DEBUG_STATS_RL:               GvNm1 (DYNAMICS) S.D.=  3.95873164871033E-08
DEBUG_STATS_RL:               GtNm1 (DYNAMICS)  min=  0.00000000000000E+00
DEBUG_STATS_RL:               GtNm1 (DYNAMICS)  max=  0.00000000000000E+00
DEBUG_STATS_RL:               GtNm1 (DYNAMICS) mean=  0.00000000000000E+00
DEBUG_STATS_RL:               GtNm1 (DYNAMICS) S.D.=  0.00000000000000E+00
DEBUG_STATS_RL:               GsNm1 (DYNAMICS)  min=  0.00000000000000E+00
DEBUG_STATS_RL:               GsNm1 (DYNAMICS)  max=  0.00000000000000E+00
DEBUG_STATS_RL:               GsNm1 (DYNAMICS) mean=  0.00000000000000E+00
DEBUG_STATS_RL:               GsNm1 (DYNAMICS) S.D.=  0.00000000000000E+00
DEBUG_STATS_RL:    cg2d_b (SOLVE_FOR_PRESSURE)  min= -7.43169656861265E+03
DEBUG_STATS_RL:    cg2d_b (SOLVE_FOR_PRESSURE)  max=  2.17598296942629E+03
DEBUG_STATS_RL:    cg2d_b (SOLVE_FOR_PRESSURE) mean=  6.77384074757962E-13
DEBUG_STATS_RL:    cg2d_b (SOLVE_FOR_PRESSURE) S.D.=  9.02750100849782E+02
 cg2d: Sum(rhs),rhsMax =   1.24171506410420E-14  1.19612709187935E+00
DEBUG_STATS_RL:    cg2d_x (SOLVE_FOR_PRESSURE)  min= -1.18794061890855E+00
DEBUG_STATS_RL:    cg2d_x (SOLVE_FOR_PRESSURE)  max=  3.24511049575811E+00
DEBUG_STATS_RL:    cg2d_x (SOLVE_FOR_PRESSURE) mean= -3.88654400026543E-02
DEBUG_STATS_RL:    cg2d_x (SOLVE_FOR_PRESSURE) S.D.=  6.81167535252150E-01
DEBUG_STATS_RL:          Uvel (THERMODYNAMICS)  min= -3.57601727936429E-02
DEBUG_STATS_RL:          Uvel (THERMODYNAMICS)  max=  1.04775938290593E-01
DEBUG_STATS_RL:          Uvel (THERMODYNAMICS) mean=  4.39725630125240E-03
DEBUG_STATS_RL:          Uvel (THERMODYNAMICS) S.D.=  1.39028540310337E-02
DEBUG_STATS_RL:          Vvel (THERMODYNAMICS)  min= -1.27584762387763E-01
DEBUG_STATS_RL:          Vvel (THERMODYNAMICS)  max=  6.50083276838833E-02
DEBUG_STATS_RL:          Vvel (THERMODYNAMICS) mean= -3.36887217581960E-03
DEBUG_STATS_RL:          Vvel (THERMODYNAMICS) S.D.=  1.85890275650177E-02
DEBUG_STATS_RL:          Wvel (THERMODYNAMICS)  min= -2.67954696014334E-04
DEBUG_STATS_RL:          Wvel (THERMODYNAMICS)  max=  3.29804232734308E-04
DEBUG_STATS_RL:          Wvel (THERMODYNAMICS) mean= -4.85616750768618E-08
DEBUG_STATS_RL:          Wvel (THERMODYNAMICS) S.D.=  2.84164537902806E-05
DEBUG_STATS_RL:         Theta (THERMODYNAMICS)  min= -1.95963016104378E+00
DEBUG_STATS_RL:         Theta (THERMODYNAMICS)  max=  1.32396343409662E+01
DEBUG_STATS_RL:         Theta (THERMODYNAMICS) mean=  2.41506584132490E+00
DEBUG_STATS_RL:         Theta (THERMODYNAMICS) S.D.=  2.57443936967395E+00
DEBUG_STATS_RL:          Salt (THERMODYNAMICS)  min=  2.76338867569799E+01
DEBUG_STATS_RL:          Salt (THERMODYNAMICS)  max=  3.54511617149686E+01
DEBUG_STATS_RL:          Salt (THERMODYNAMICS) mean=  3.39367496241633E+01
DEBUG_STATS_RL:          Salt (THERMODYNAMICS) S.D.=  1.15359229307470E+00
DEBUG_STATS_RL:         GtNm1 (THERMODYNAMICS)  min=  0.00000000000000E+00
DEBUG_STATS_RL:         GtNm1 (THERMODYNAMICS)  max=  0.00000000000000E+00
DEBUG_STATS_RL:         GtNm1 (THERMODYNAMICS) mean=  0.00000000000000E+00
DEBUG_STATS_RL:         GtNm1 (THERMODYNAMICS) S.D.=  0.00000000000000E+00
DEBUG_STATS_RL:         GsNm1 (THERMODYNAMICS)  min=  0.00000000000000E+00
DEBUG_STATS_RL:         GsNm1 (THERMODYNAMICS)  max=  0.00000000000000E+00
DEBUG_STATS_RL:         GsNm1 (THERMODYNAMICS) mean=  0.00000000000000E+00
DEBUG_STATS_RL:         GsNm1 (THERMODYNAMICS) S.D.=  0.00000000000000E+00
(PID.TID 0000.0001)  MDS_WRITE_FIELD: it,rec,kS,kL,kH=       1     8   1   1   1 file=m_sst_step.0000000001
(PID.TID 0000.0001)  MDS_READ_FIELD: opening global file: xx_atemp.effective.0000000001.data
(PID.TID 0000.0001) EXF_SET_FLD: processing field "climsss",  file: SSS_monthly.labsea1979
(PID.TID 0000.0001) EXF_SET_FLD:   myIter, count0, count1:         7      1      2
(PID.TID 0000.0001) EXF_SET_FLD:   first, changed, fac:   F   F    0.49043715846994540
(PID.TID 0000.0001) EXF_SET_FLD: processing field "uwind",  file: u10m.labsea1979
(PID.TID 0000.0001) EXF_SET_FLD:   myIter, count0, count1:         7      1      2
(PID.TID 0000.0001) EXF_SET_FLD:   first, changed, fac:   F   F    0.49043715846994540
(PID.TID 0000.0001) EXF_SET_FLD: processing field "vwind",  file: v10m.labsea1979
(PID.TID 0000.0001) EXF_SET_FLD:   myIter, count0, count1:         7      1      2
(PID.TID 0000.0001) EXF_SET_FLD:   first, changed, fac:   F   F    0.49043715846994540
(PID.TID 0000.0001) EXF_SET_FLD: processing field "atemp",  file: tair.labsea1979
(PID.TID 0000.0001) EXF_SET_FLD:   myIter, count0, count1:         7      1      2
(PID.TID 0000.0001) EXF_SET_FLD:   first, changed, fac:   F   F    0.49043715846994540
(PID.TID 0000.0001) EXF_SET_FLD: processing field "aqh",  file: qa.labsea1979
(PID.TID 0000.0001) EXF_SET_FLD:   myIter, count0, count1:         7      1      2
(PID.TID 0000.0001) EXF_SET_FLD:   first, changed, fac:   F   F    0.49043715846994540
(PID.TID 0000.0001) EXF_SET_FLD: processing field "precip",  file: prate.labsea1979
(PID.TID 0000.0001) EXF_SET_FLD:   myIter, count0, count1:         7      1      2
(PID.TID 0000.0001) EXF_SET_FLD:   first, changed, fac:   F   F    0.49043715846994540
(PID.TID 0000.0001) EXF_SET_FLD: processing field "swdown",  file: fsh.labsea1979
(PID.TID 0000.0001) EXF_SET_FLD:   myIter, count0, count1:         7      1      2
(PID.TID 0000.0001) EXF_SET_FLD:   first, changed, fac:   F   F    0.49043715846994540
(PID.TID 0000.0001) EXF_SET_FLD: processing field "lwdown",  file: flo.labsea1979
(PID.TID 0000.0001) EXF_SET_FLD:   myIter, count0, count1:         7      1      2
(PID.TID 0000.0001) EXF_SET_FLD:   first, changed, fac:   F   F    0.49043715846994540
DEBUG_STATS_RL: Uice pre  iter (SEAICE_LSR  1)  min= -1.54549194525880E-02
DEBUG_STATS_RL: Uice pre  iter (SEAICE_LSR  1)  max=  2.53524286292195E-01
DEBUG_STATS_RL: Uice pre  iter (SEAICE_LSR  1) mean=  6.68799365320269E-02
DEBUG_STATS_RL: Uice pre  iter (SEAICE_LSR  1) S.D.=  7.54478852962481E-02
DEBUG_STATS_RL: Vice pre  iter (SEAICE_LSR  1)  min= -1.68373183021251E-01
DEBUG_STATS_RL: Vice pre  iter (SEAICE_LSR  1)  max=  8.10859368452299E-02
DEBUG_STATS_RL: Vice pre  iter (SEAICE_LSR  1) mean= -4.94905385200894E-02
DEBUG_STATS_RL: Vice pre  iter (SEAICE_LSR  1) S.D.=  5.89447951203272E-02
DEBUG_STATS_RL: Uice pre  iter (SEAICE_LSR  2)  min= -1.68104910559777E-02
DEBUG_STATS_RL: Uice pre  iter (SEAICE_LSR  2)  max=  2.51381266335640E-01
DEBUG_STATS_RL: Uice pre  iter (SEAICE_LSR  2) mean=  6.26056742417322E-02
DEBUG_STATS_RL: Uice pre  iter (SEAICE_LSR  2) S.D.=  7.23215228186469E-02
DEBUG_STATS_RL: Vice pre  iter (SEAICE_LSR  2)  min= -1.70146515867222E-01
DEBUG_STATS_RL: Vice pre  iter (SEAICE_LSR  2)  max=  7.01571636850256E-02
DEBUG_STATS_RL: Vice pre  iter (SEAICE_LSR  2) mean= -5.12009841743680E-02
DEBUG_STATS_RL: Vice pre  iter (SEAICE_LSR  2) S.D.=  5.84735965011998E-02
DEBUG_STATS_RL:                EtaN (DYNAMICS)  min= -1.21025777222844E-01
DEBUG_STATS_RL:                EtaN (DYNAMICS)  max=  3.30607450971730E-01
DEBUG_STATS_RL:                EtaN (DYNAMICS) mean= -3.95955825447800E-03
DEBUG_STATS_RL:                EtaN (DYNAMICS) S.D.=  6.93964235759557E-02
DEBUG_STATS_RL:                Uvel (DYNAMICS)  min= -3.57601727936429E-02
DEBUG_STATS_RL:                Uvel (DYNAMICS)  max=  1.04775938290593E-01
DEBUG_STATS_RL:                Uvel (DYNAMICS) mean=  4.39725630125240E-03
DEBUG_STATS_RL:                Uvel (DYNAMICS) S.D.=  1.39028540310337E-02
DEBUG_STATS_RL:                Vvel (DYNAMICS)  min= -1.27584762387763E-01
DEBUG_STATS_RL:                Vvel (DYNAMICS)  max=  6.50083276838833E-02
DEBUG_STATS_RL:                Vvel (DYNAMICS) mean= -3.36887217581960E-03
DEBUG_STATS_RL:                Vvel (DYNAMICS) S.D.=  1.85890275650177E-02
DEBUG_STATS_RL:                Wvel (DYNAMICS)  min= -2.67954696014334E-04
DEBUG_STATS_RL:                Wvel (DYNAMICS)  max=  3.29804232734308E-04
DEBUG_STATS_RL:                Wvel (DYNAMICS) mean= -4.85616750768618E-08
DEBUG_STATS_RL:                Wvel (DYNAMICS) S.D.=  2.84164537902806E-05
DEBUG_STATS_RL:               Theta (DYNAMICS)  min= -1.95963016104378E+00
DEBUG_STATS_RL:               Theta (DYNAMICS)  max=  1.32396343409662E+01
DEBUG_STATS_RL:               Theta (DYNAMICS) mean=  2.41506584132490E+00
DEBUG_STATS_RL:               Theta (DYNAMICS) S.D.=  2.57443936967395E+00
DEBUG_STATS_RL:                Salt (DYNAMICS)  min=  2.76338867569799E+01
DEBUG_STATS_RL:                Salt (DYNAMICS)  max=  3.54511617149686E+01
DEBUG_STATS_RL:                Salt (DYNAMICS) mean=  3.39367496241633E+01
DEBUG_STATS_RL:                Salt (DYNAMICS) S.D.=  1.15359229307470E+00
DEBUG_STATS_RL:                  Gu (DYNAMICS)  min= -5.18639383664096E-02
DEBUG_STATS_RL:                  Gu (DYNAMICS)  max=  1.08500044377568E-01
DEBUG_STATS_RL:                  Gu (DYNAMICS) mean=  2.22152146945400E-03
DEBUG_STATS_RL:                  Gu (DYNAMICS) S.D.=  1.62488741545270E-02
DEBUG_STATS_RL:                  Gv (DYNAMICS)  min= -1.40216393355450E-01
DEBUG_STATS_RL:                  Gv (DYNAMICS)  max=  4.07135165171772E-02
DEBUG_STATS_RL:                  Gv (DYNAMICS) mean= -7.84361289826588E-03
DEBUG_STATS_RL:                  Gv (DYNAMICS) S.D.=  1.86090017356240E-02
DEBUG_STATS_RL:               GuNm1 (DYNAMICS)  min= -3.48473911940039E-07
DEBUG_STATS_RL:               GuNm1 (DYNAMICS)  max=  1.90416017948020E-07
DEBUG_STATS_RL:               GuNm1 (DYNAMICS) mean= -3.12306477014329E-09
DEBUG_STATS_RL:               GuNm1 (DYNAMICS) S.D.=  4.09417632400153E-08
DEBUG_STATS_RL:               GvNm1 (DYNAMICS)  min= -2.15359173477238E-07
DEBUG_STATS_RL:               GvNm1 (DYNAMICS)  max=  1.82438063100013E-07
DEBUG_STATS_RL:               GvNm1 (DYNAMICS) mean= -6.53519601922726E-10
DEBUG_STATS_RL:               GvNm1 (DYNAMICS) S.D.=  4.16452354556447E-08
DEBUG_STATS_RL:               GtNm1 (DYNAMICS)  min=  0.00000000000000E+00
DEBUG_STATS_RL:               GtNm1 (DYNAMICS)  max=  0.00000000000000E+00
DEBUG_STATS_RL:               GtNm1 (DYNAMICS) mean=  0.00000000000000E+00
DEBUG_STATS_RL:               GtNm1 (DYNAMICS) S.D.=  0.00000000000000E+00
DEBUG_STATS_RL:               GsNm1 (DYNAMICS)  min=  0.00000000000000E+00
DEBUG_STATS_RL:               GsNm1 (DYNAMICS)  max=  0.00000000000000E+00
DEBUG_STATS_RL:               GsNm1 (DYNAMICS) mean=  0.00000000000000E+00
DEBUG_STATS_RL:               GsNm1 (DYNAMICS) S.D.=  0.00000000000000E+00
DEBUG_STATS_RL:    cg2d_b (SOLVE_FOR_PRESSURE)  min= -7.37985604508146E+03
DEBUG_STATS_RL:    cg2d_b (SOLVE_FOR_PRESSURE)  max=  2.18366607280415E+03
DEBUG_STATS_RL:    cg2d_b (SOLVE_FOR_PRESSURE) mean=  5.56686548710180E-13
DEBUG_STATS_RL:    cg2d_b (SOLVE_FOR_PRESSURE) S.D.=  8.98963545839632E+02
 cg2d: Sum(rhs),rhsMax =   1.16053000542848E-14  1.18778339080378E+00
DEBUG_STATS_RL:    cg2d_x (SOLVE_FOR_PRESSURE)  min= -1.13929441834599E+00
DEBUG_STATS_RL:    cg2d_x (SOLVE_FOR_PRESSURE)  max=  3.20616731162338E+00
DEBUG_STATS_RL:    cg2d_x (SOLVE_FOR_PRESSURE) mean= -4.15672442272121E-02
DEBUG_STATS_RL:    cg2d_x (SOLVE_FOR_PRESSURE) S.D.=  6.51074617232118E-01
DEBUG_STATS_RL:          Uvel (THERMODYNAMICS)  min= -4.34802359621611E-02
DEBUG_STATS_RL:          Uvel (THERMODYNAMICS)  max=  9.99752242998811E-02
DEBUG_STATS_RL:          Uvel (THERMODYNAMICS) mean=  3.48264152590063E-03
DEBUG_STATS_RL:          Uvel (THERMODYNAMICS) S.D.=  1.35343125506099E-02
DEBUG_STATS_RL:          Vvel (THERMODYNAMICS)  min= -1.33439207289253E-01
DEBUG_STATS_RL:          Vvel (THERMODYNAMICS)  max=  5.60260700766949E-02
DEBUG_STATS_RL:          Vvel (THERMODYNAMICS) mean= -4.02696574872853E-03
DEBUG_STATS_RL:          Vvel (THERMODYNAMICS) S.D.=  1.80273334212782E-02
DEBUG_STATS_RL:          Wvel (THERMODYNAMICS)  min= -2.73348162229353E-04
DEBUG_STATS_RL:          Wvel (THERMODYNAMICS)  max=  3.13596923283680E-04
DEBUG_STATS_RL:          Wvel (THERMODYNAMICS) mean=  4.73709411314520E-08
DEBUG_STATS_RL:          Wvel (THERMODYNAMICS) S.D.=  2.82661454219208E-05
DEBUG_STATS_RL:         Theta (THERMODYNAMICS)  min= -1.95943609422384E+00
DEBUG_STATS_RL:         Theta (THERMODYNAMICS)  max=  1.32225113409296E+01
DEBUG_STATS_RL:         Theta (THERMODYNAMICS) mean=  2.41480286619417E+00
DEBUG_STATS_RL:         Theta (THERMODYNAMICS) S.D.=  2.57398860030337E+00
DEBUG_STATS_RL:          Salt (THERMODYNAMICS)  min=  2.76387468555707E+01
DEBUG_STATS_RL:          Salt (THERMODYNAMICS)  max=  3.54510358217953E+01
DEBUG_STATS_RL:          Salt (THERMODYNAMICS) mean=  3.39367601804952E+01
DEBUG_STATS_RL:          Salt (THERMODYNAMICS) S.D.=  1.15334890349561E+00
DEBUG_STATS_RL:         GtNm1 (THERMODYNAMICS)  min=  0.00000000000000E+00
DEBUG_STATS_RL:         GtNm1 (THERMODYNAMICS)  max=  0.00000000000000E+00
DEBUG_STATS_RL:         GtNm1 (THERMODYNAMICS) mean=  0.00000000000000E+00
DEBUG_STATS_RL:         GtNm1 (THERMODYNAMICS) S.D.=  0.00000000000000E+00
DEBUG_STATS_RL:         GsNm1 (THERMODYNAMICS)  min=  0.00000000000000E+00
DEBUG_STATS_RL:         GsNm1 (THERMODYNAMICS)  max=  0.00000000000000E+00
DEBUG_STATS_RL:         GsNm1 (THERMODYNAMICS) mean=  0.00000000000000E+00
DEBUG_STATS_RL:         GsNm1 (THERMODYNAMICS) S.D.=  0.00000000000000E+00
(PID.TID 0000.0001)  MDS_WRITE_FIELD: it,rec,kS,kL,kH=       1     9   1   1   1 file=m_sst_step.0000000001
(PID.TID 0000.0001)  MDS_READ_FIELD: opening global file: xx_atemp.effective.0000000001.data
(PID.TID 0000.0001) EXF_SET_FLD: processing field "climsss",  file: SSS_monthly.labsea1979
(PID.TID 0000.0001) EXF_SET_FLD:   myIter, count0, count1:         8      1      2
(PID.TID 0000.0001) EXF_SET_FLD:   first, changed, fac:   F   F    0.48907103825136611
(PID.TID 0000.0001) EXF_SET_FLD: processing field "uwind",  file: u10m.labsea1979
(PID.TID 0000.0001) EXF_SET_FLD:   myIter, count0, count1:         8      1      2
(PID.TID 0000.0001) EXF_SET_FLD:   first, changed, fac:   F   F    0.48907103825136611
(PID.TID 0000.0001) EXF_SET_FLD: processing field "vwind",  file: v10m.labsea1979
(PID.TID 0000.0001) EXF_SET_FLD:   myIter, count0, count1:         8      1      2
(PID.TID 0000.0001) EXF_SET_FLD:   first, changed, fac:   F   F    0.48907103825136611
(PID.TID 0000.0001) EXF_SET_FLD: processing field "atemp",  file: tair.labsea1979
(PID.TID 0000.0001) EXF_SET_FLD:   myIter, count0, count1:         8      1      2
(PID.TID 0000.0001) EXF_SET_FLD:   first, changed, fac:   F   F    0.48907103825136611
(PID.TID 0000.0001) EXF_SET_FLD: processing field "aqh",  file: qa.labsea1979
(PID.TID 0000.0001) EXF_SET_FLD:   myIter, count0, count1:         8      1      2
(PID.TID 0000.0001) EXF_SET_FLD:   first, changed, fac:   F   F    0.48907103825136611
(PID.TID 0000.0001) EXF_SET_FLD: processing field "precip",  file: prate.labsea1979
(PID.TID 0000.0001) EXF_SET_FLD:   myIter, count0, count1:         8      1      2
(PID.TID 0000.0001) EXF_SET_FLD:   first, changed, fac:   F   F    0.48907103825136611
(PID.TID 0000.0001) EXF_SET_FLD: processing field "swdown",  file: fsh.labsea1979
(PID.TID 0000.0001) EXF_SET_FLD:   myIter, count0, count1:         8      1      2
(PID.TID 0000.0001) EXF_SET_FLD:   first, changed, fac:   F   F    0.48907103825136611
(PID.TID 0000.0001) EXF_SET_FLD: processing field "lwdown",  file: flo.labsea1979
(PID.TID 0000.0001) EXF_SET_FLD:   myIter, count0, count1:         8      1      2
(PID.TID 0000.0001) EXF_SET_FLD:   first, changed, fac:   F   F    0.48907103825136611
DEBUG_STATS_RL: Uice pre  iter (SEAICE_LSR  1)  min= -1.95687208100118E-02
DEBUG_STATS_RL: Uice pre  iter (SEAICE_LSR  1)  max=  2.56695252608154E-01
DEBUG_STATS_RL: Uice pre  iter (SEAICE_LSR  1) mean=  6.10102626008995E-02
DEBUG_STATS_RL: Uice pre  iter (SEAICE_LSR  1) S.D.=  7.26515133442884E-02
DEBUG_STATS_RL: Vice pre  iter (SEAICE_LSR  1)  min= -1.74351841639982E-01
DEBUG_STATS_RL: Vice pre  iter (SEAICE_LSR  1)  max=  6.17815719868620E-02
DEBUG_STATS_RL: Vice pre  iter (SEAICE_LSR  1) mean= -5.34332922102964E-02
DEBUG_STATS_RL: Vice pre  iter (SEAICE_LSR  1) S.D.=  5.91879685810935E-02
DEBUG_STATS_RL: Uice pre  iter (SEAICE_LSR  2)  min= -2.10631196463148E-02
DEBUG_STATS_RL: Uice pre  iter (SEAICE_LSR  2)  max=  2.47741110498679E-01
DEBUG_STATS_RL: Uice pre  iter (SEAICE_LSR  2) mean=  5.58563099525838E-02
DEBUG_STATS_RL: Uice pre  iter (SEAICE_LSR  2) S.D.=  6.83562873806874E-02
DEBUG_STATS_RL: Vice pre  iter (SEAICE_LSR  2)  min= -1.71270231909304E-01
DEBUG_STATS_RL: Vice pre  iter (SEAICE_LSR  2)  max=  5.00408736690830E-02
DEBUG_STATS_RL: Vice pre  iter (SEAICE_LSR  2) mean= -5.35471708937474E-02
DEBUG_STATS_RL: Vice pre  iter (SEAICE_LSR  2) S.D.=  5.75117440524729E-02
DEBUG_STATS_RL:                EtaN (DYNAMICS)  min= -1.16069768363217E-01
DEBUG_STATS_RL:                EtaN (DYNAMICS)  max=  3.26639972250640E-01
DEBUG_STATS_RL:                EtaN (DYNAMICS) mean= -4.23481440026205E-03
DEBUG_STATS_RL:                EtaN (DYNAMICS) S.D.=  6.63305979493987E-02
DEBUG_STATS_RL:                Uvel (DYNAMICS)  min= -4.34802359621611E-02
DEBUG_STATS_RL:                Uvel (DYNAMICS)  max=  9.99752242998811E-02
DEBUG_STATS_RL:                Uvel (DYNAMICS) mean=  3.48264152590063E-03
DEBUG_STATS_RL:                Uvel (DYNAMICS) S.D.=  1.35343125506099E-02
DEBUG_STATS_RL:                Vvel (DYNAMICS)  min= -1.33439207289253E-01
DEBUG_STATS_RL:                Vvel (DYNAMICS)  max=  5.60260700766949E-02
DEBUG_STATS_RL:                Vvel (DYNAMICS) mean= -4.02696574872853E-03
DEBUG_STATS_RL:                Vvel (DYNAMICS) S.D.=  1.80273334212782E-02
DEBUG_STATS_RL:                Wvel (DYNAMICS)  min= -2.73348162229353E-04
DEBUG_STATS_RL:                Wvel (DYNAMICS)  max=  3.13596923283680E-04
DEBUG_STATS_RL:                Wvel (DYNAMICS) mean=  4.73709411314520E-08
DEBUG_STATS_RL:                Wvel (DYNAMICS) S.D.=  2.82661454219208E-05
DEBUG_STATS_RL:               Theta (DYNAMICS)  min= -1.95943609422384E+00
DEBUG_STATS_RL:               Theta (DYNAMICS)  max=  1.32225113409296E+01
DEBUG_STATS_RL:               Theta (DYNAMICS) mean=  2.41480286619417E+00
DEBUG_STATS_RL:               Theta (DYNAMICS) S.D.=  2.57398860030337E+00
DEBUG_STATS_RL:                Salt (DYNAMICS)  min=  2.76387468555707E+01
DEBUG_STATS_RL:                Salt (DYNAMICS)  max=  3.54510358217953E+01
DEBUG_STATS_RL:                Salt (DYNAMICS) mean=  3.39367601804952E+01
DEBUG_STATS_RL:                Salt (DYNAMICS) S.D.=  1.15334890349561E+00
DEBUG_STATS_RL:                  Gu (DYNAMICS)  min= -5.98368153072778E-02
DEBUG_STATS_RL:                  Gu (DYNAMICS)  max=  9.68873121299255E-02
DEBUG_STATS_RL:                  Gu (DYNAMICS) mean=  1.30194972947578E-03
DEBUG_STATS_RL:                  Gu (DYNAMICS) S.D.=  1.61566615235299E-02
DEBUG_STATS_RL:                  Gv (DYNAMICS)  min= -1.36271217267993E-01
DEBUG_STATS_RL:                  Gv (DYNAMICS)  max=  3.83573237348660E-02
DEBUG_STATS_RL:                  Gv (DYNAMICS) mean= -7.71950831959255E-03
DEBUG_STATS_RL:                  Gv (DYNAMICS) S.D.=  1.77533563667840E-02
DEBUG_STATS_RL:               GuNm1 (DYNAMICS)  min= -3.40955168137048E-07
DEBUG_STATS_RL:               GuNm1 (DYNAMICS)  max=  1.82641400821287E-07
DEBUG_STATS_RL:               GuNm1 (DYNAMICS) mean= -2.79196714442828E-09
DEBUG_STATS_RL:               GuNm1 (DYNAMICS) S.D.=  4.07453533304277E-08
DEBUG_STATS_RL:               GvNm1 (DYNAMICS)  min= -2.14559263714300E-07
DEBUG_STATS_RL:               GvNm1 (DYNAMICS)  max=  1.94148824775151E-07
DEBUG_STATS_RL:               GvNm1 (DYNAMICS) mean= -4.04169206803115E-10
DEBUG_STATS_RL:               GvNm1 (DYNAMICS) S.D.=  4.19222729579585E-08
DEBUG_STATS_RL:               GtNm1 (DYNAMICS)  min=  0.00000000000000E+00
DEBUG_STATS_RL:               GtNm1 (DYNAMICS)  max=  0.00000000000000E+00
DEBUG_STATS_RL:               GtNm1 (DYNAMICS) mean=  0.00000000000000E+00
DEBUG_STATS_RL:               GtNm1 (DYNAMICS) S.D.=  0.00000000000000E+00
DEBUG_STATS_RL:               GsNm1 (DYNAMICS)  min=  0.00000000000000E+00
DEBUG_STATS_RL:               GsNm1 (DYNAMICS)  max=  0.00000000000000E+00
DEBUG_STATS_RL:               GsNm1 (DYNAMICS) mean=  0.00000000000000E+00
DEBUG_STATS_RL:               GsNm1 (DYNAMICS) S.D.=  0.00000000000000E+00
DEBUG_STATS_RL:    cg2d_b (SOLVE_FOR_PRESSURE)  min= -7.29975929937815E+03
DEBUG_STATS_RL:    cg2d_b (SOLVE_FOR_PRESSURE)  max=  2.19478299507031E+03
DEBUG_STATS_RL:    cg2d_b (SOLVE_FOR_PRESSURE) mean= -4.06998879043385E-13
DEBUG_STATS_RL:    cg2d_b (SOLVE_FOR_PRESSURE) S.D.=  8.94146290227763E+02
 cg2d: Sum(rhs),rhsMax =  -7.76462227847219E-15  1.17489186776828E+00
DEBUG_STATS_RL:    cg2d_x (SOLVE_FOR_PRESSURE)  min= -1.08771127617269E+00
DEBUG_STATS_RL:    cg2d_x (SOLVE_FOR_PRESSURE)  max=  3.12128519797458E+00
DEBUG_STATS_RL:    cg2d_x (SOLVE_FOR_PRESSURE) mean= -4.19588396852982E-02
DEBUG_STATS_RL:    cg2d_x (SOLVE_FOR_PRESSURE) S.D.=  6.20262122262757E-01
DEBUG_STATS_RL:          Uvel (THERMODYNAMICS)  min= -5.12375198240752E-02
DEBUG_STATS_RL:          Uvel (THERMODYNAMICS)  max=  8.84896388076344E-02
DEBUG_STATS_RL:          Uvel (THERMODYNAMICS) mean=  2.55769138538452E-03
DEBUG_STATS_RL:          Uvel (THERMODYNAMICS) S.D.=  1.29064693910420E-02
DEBUG_STATS_RL:          Vvel (THERMODYNAMICS)  min= -1.29344604199477E-01
DEBUG_STATS_RL:          Vvel (THERMODYNAMICS)  max=  4.58633296186249E-02
DEBUG_STATS_RL:          Vvel (THERMODYNAMICS) mean= -4.14107843006197E-03
DEBUG_STATS_RL:          Vvel (THERMODYNAMICS) S.D.=  1.66082836245790E-02
DEBUG_STATS_RL:          Wvel (THERMODYNAMICS)  min= -2.60848991809588E-04
DEBUG_STATS_RL:          Wvel (THERMODYNAMICS)  max=  2.85731299794374E-04
DEBUG_STATS_RL:          Wvel (THERMODYNAMICS) mean=  1.36793666178513E-07
DEBUG_STATS_RL:          Wvel (THERMODYNAMICS) S.D.=  2.70580054557626E-05
DEBUG_STATS_RL:         Theta (THERMODYNAMICS)  min= -1.95932886747261E+00
DEBUG_STATS_RL:         Theta (THERMODYNAMICS)  max=  1.32010303660583E+01
DEBUG_STATS_RL:         Theta (THERMODYNAMICS) mean=  2.41452315045422E+00
DEBUG_STATS_RL:         Theta (THERMODYNAMICS) S.D.=  2.57350774067654E+00
DEBUG_STATS_RL:          Salt (THERMODYNAMICS)  min=  2.76435505129419E+01
DEBUG_STATS_RL:          Salt (THERMODYNAMICS)  max=  3.54508660670958E+01
DEBUG_STATS_RL:          Salt (THERMODYNAMICS) mean=  3.39367749828879E+01
DEBUG_STATS_RL:          Salt (THERMODYNAMICS) S.D.=  1.15309738582068E+00
DEBUG_STATS_RL:         GtNm1 (THERMODYNAMICS)  min=  0.00000000000000E+00
DEBUG_STATS_RL:         GtNm1 (THERMODYNAMICS)  max=  0.00000000000000E+00
DEBUG_STATS_RL:         GtNm1 (THERMODYNAMICS) mean=  0.00000000000000E+00
DEBUG_STATS_RL:         GtNm1 (THERMODYNAMICS) S.D.=  0.00000000000000E+00
DEBUG_STATS_RL:         GsNm1 (THERMODYNAMICS)  min=  0.00000000000000E+00
DEBUG_STATS_RL:         GsNm1 (THERMODYNAMICS)  max=  0.00000000000000E+00
DEBUG_STATS_RL:         GsNm1 (THERMODYNAMICS) mean=  0.00000000000000E+00
DEBUG_STATS_RL:         GsNm1 (THERMODYNAMICS) S.D.=  0.00000000000000E+00
(PID.TID 0000.0001) Did not write pickup because writePickupAtEnd = FALSE
(PID.TID 0000.0001)  MDS_WRITE_FIELD: it,rec,kS,kL,kH=       1    10   1   1   1 file=m_sst_step.0000000001
(PID.TID 0000.0001) gencost # 03
(PID.TID 0000.0001)  MDS_READ_FIELD: opening global file: sigma_sst.bin
(PID.TID 0000.0001)  MDS_READ_FIELD: opening global file: m_sst_step.0000000001.data
(PID.TID 0000.0001)  MDS_READ_FIELD: opening global file: labsea_SST_fields_t10
(PID.TID 0000.0001)  MDS_WRITE_FIELD: it,rec,kS,kL,kH=       1     1   1   1   1 file=misfit_sst
(PID.TID 0000.0001)  MDS_READ_FIELD: opening global file: sigma_sst.bin
(PID.TID 0000.0001)  MDS_READ_FIELD: opening global file: m_sst_step.0000000001.data
(PID.TID 0000.0001)  MDS_READ_FIELD: opening global file: labsea_SST_fields_t10
(PID.TID 0000.0001)  MDS_WRITE_FIELD: it,rec,kS,kL,kH=       1     2   1   1   1 file=misfit_sst
(PID.TID 0000.0001)  MDS_READ_FIELD: opening global file: sigma_sst.bin
(PID.TID 0000.0001)  MDS_READ_FIELD: opening global file: m_sst_step.0000000001.data
(PID.TID 0000.0001)  MDS_READ_FIELD: opening global file: labsea_SST_fields_t10
(PID.TID 0000.0001)  MDS_WRITE_FIELD: it,rec,kS,kL,kH=       1     3   1   1   1 file=misfit_sst
(PID.TID 0000.0001)  MDS_READ_FIELD: opening global file: sigma_sst.bin
(PID.TID 0000.0001)  MDS_READ_FIELD: opening global file: m_sst_step.0000000001.data
(PID.TID 0000.0001)  MDS_READ_FIELD: opening global file: labsea_SST_fields_t10
(PID.TID 0000.0001)  MDS_WRITE_FIELD: it,rec,kS,kL,kH=       1     4   1   1   1 file=misfit_sst
(PID.TID 0000.0001)  MDS_READ_FIELD: opening global file: sigma_sst.bin
(PID.TID 0000.0001)  MDS_READ_FIELD: opening global file: m_sst_step.0000000001.data
(PID.TID 0000.0001)  MDS_READ_FIELD: opening global file: labsea_SST_fields_t10
(PID.TID 0000.0001)  MDS_WRITE_FIELD: it,rec,kS,kL,kH=       1     5   1   1   1 file=misfit_sst
(PID.TID 0000.0001)  MDS_READ_FIELD: opening global file: sigma_sst.bin
(PID.TID 0000.0001)  MDS_READ_FIELD: opening global file: m_sst_step.0000000001.data
(PID.TID 0000.0001)  MDS_READ_FIELD: opening global file: labsea_SST_fields_t10
(PID.TID 0000.0001)  MDS_WRITE_FIELD: it,rec,kS,kL,kH=       1     6   1   1   1 file=misfit_sst
(PID.TID 0000.0001)  MDS_READ_FIELD: opening global file: sigma_sst.bin
(PID.TID 0000.0001)  MDS_READ_FIELD: opening global file: m_sst_step.0000000001.data
(PID.TID 0000.0001)  MDS_READ_FIELD: opening global file: labsea_SST_fields_t10
(PID.TID 0000.0001)  MDS_WRITE_FIELD: it,rec,kS,kL,kH=       1     7   1   1   1 file=misfit_sst
(PID.TID 0000.0001)  MDS_READ_FIELD: opening global file: sigma_sst.bin
(PID.TID 0000.0001)  MDS_READ_FIELD: opening global file: m_sst_step.0000000001.data
(PID.TID 0000.0001)  MDS_READ_FIELD: opening global file: labsea_SST_fields_t10
(PID.TID 0000.0001)  MDS_WRITE_FIELD: it,rec,kS,kL,kH=       1     8   1   1   1 file=misfit_sst
(PID.TID 0000.0001)  MDS_READ_FIELD: opening global file: sigma_sst.bin
(PID.TID 0000.0001)  MDS_READ_FIELD: opening global file: m_sst_step.0000000001.data
(PID.TID 0000.0001)  MDS_READ_FIELD: opening global file: labsea_SST_fields_t10
(PID.TID 0000.0001)  MDS_WRITE_FIELD: it,rec,kS,kL,kH=       1     9   1   1   1 file=misfit_sst
(PID.TID 0000.0001)  MDS_READ_FIELD: opening global file: sigma_sst.bin
(PID.TID 0000.0001)  MDS_READ_FIELD: opening global file: m_sst_step.0000000001.data
(PID.TID 0000.0001)  MDS_READ_FIELD: opening global file: labsea_SST_fields_t10
(PID.TID 0000.0001)  MDS_WRITE_FIELD: it,rec,kS,kL,kH=       1    10   1   1   1 file=misfit_sst
(PID.TID 0000.0001)  MDS_READ_FIELD: opening global file: xx_atemp.0000000001.data
(PID.TID 0000.0001)  MDS_READ_FIELD: opening global file: xx_atemp.0000000001.data
(PID.TID 0000.0001)  MDS_READ_FIELD: opening global file: xx_atemp.0000000001.data
(PID.TID 0000.0001)  MDS_READ_FIELD: opening global file: xx_atemp.0000000001.data
(PID.TID 0000.0001)  MDS_READ_FIELD: opening global file: xx_atemp.0000000001.data
(PID.TID 0000.0001)  MDS_READ_FIELD: opening global file: xx_atemp.0000000001.data
(PID.TID 0000.0001)  MDS_READ_FIELD: opening global file: xx_atemp.0000000001.data
(PID.TID 0000.0001)  MDS_READ_FIELD: opening global file: xx_atemp.0000000001.data
(PID.TID 0000.0001)  MDS_READ_FIELD: opening global file: xx_atemp.0000000001.data
(PID.TID 0000.0001)  MDS_READ_FIELD: opening global file: xx_atemp.0000000001.data
(PID.TID 0000.0001)  MDS_READ_FIELD: opening global file: xx_atemp.0000000001.data
 --> f_ice     = 0.000000000000000D+00
 --> f_smrarea = 0.000000000000000D+00
 --> f_smrarea = 0.000000000000000D+00
 --> f_smrarea = 0.000000000000000D+00
(PID.TID 0000.0001)  --> f_gencost = 0.527453128215444D+04 3
(PID.TID 0000.0001)  --> f_gentim2d = 0.243374980010000D+03 1
(PID.TID 0000.0001)  --> fc               = 0.527453128215444D+04
(PID.TID 0000.0001)  cost_Final: final cost function =  0.527453128215444D+04
(PID.TID 0000.0001) 
(PID.TID 0000.0001)              cost function evaluation finished.
(PID.TID 0000.0001) 
(PID.TID 0000.0001)   early fc =  0.000000000000000D+00
(PID.TID 0000.0001)   local fc =  0.527453128215444D+04
(PID.TID 0000.0001)  global fc =  0.527453128215444D+04
(PID.TID 0000.0001) grdchk perturb(-)fc: fcpertminus =  5.27453128215444E+03
(PID.TID 0000.0001)  MDS_READ_FIELD: opening global file: xx_atemp.0000000001.data
(PID.TID 0000.0001)  MDS_WRITE_FIELD: it,rec,kS,kL,kH=       1     1   1   1   1 file=xx_atemp.0000000001
grad-res -------------------------------
 grad-res     0    2    7    8    1    1    1    1   5.27453128215E+03  5.27453128215E+03  5.27453128215E+03
 grad-res     0    2    2   76    0    1    1    1  -1.02572264628E+03  1.40971678775E-07  1.00000000014E+00
(PID.TID 0000.0001)  ADM  ref_cost_function      =  5.27453128215446E+03
(PID.TID 0000.0001)  ADM  adjoint_gradient       = -1.02572264628160E+03
(PID.TID 0000.0001)  ADM  finite-diff_grad       =  1.40971678774804E-07
(PID.TID 0000.0001) ====== End of gradient-check number   2 (ierr=  0) =======
(PID.TID 0000.0001) ====== Starts gradient-check number   3 (=ichknum) =======
 ph-test icomp, ncvarcomp, ichknum           77        1650           3
 ph-grd _loc: bi, bj, icomptest, ichknum            1           1          76           3
 ph-grd -->hit<--            8           8           1           1
(PID.TID 0000.0001) grdchk pos: i,j,k=    8    8    1 ; bi,bj=   1   1 ; iobc=  1 ; rec=   1
(PID.TID 0000.0001)  MDS_READ_FIELD: opening global file: adxx_atemp.0000000001.data
(PID.TID 0000.0001)  MDS_READ_FIELD: opening global file: xx_atemp.0000000001.data
(PID.TID 0000.0001)  MDS_WRITE_FIELD: it,rec,kS,kL,kH=       1     1   1   1   1 file=xx_atemp.0000000001
(PID.TID 0000.0001)  MDS_READ_FIELD: opening global file: LevCli_temp.labsea1979
(PID.TID 0000.0001)  MDS_READ_FIELD: opening global file: LevCli_salt.labsea1979
(PID.TID 0000.0001) Start initial hydrostatic pressure computation
(PID.TID 0000.0001) Pressure is predetermined for buoyancyRelation OCEANIC
(PID.TID 0000.0001) 
(PID.TID 0000.0001) CTRL_INIT_REC: Getting record indices for xx_atemp
(PID.TID 0000.0001) CTRL_INIT_REC: Record indices for xx_atemp:
(PID.TID 0000.0001) CTRL_INIT_REC: startrec =          1, endrec =         11
(PID.TID 0000.0001)  MDS_READ_FIELD: opening global file: xx_atemp.0000000001.data
(PID.TID 0000.0001)  MDS_WRITE_FIELD: it,rec,kS,kL,kH=       1     1   1   1   1 file=xx_atemp.effective.0000000001
(PID.TID 0000.0001)  MDS_READ_FIELD: opening global file: xx_atemp.0000000001.data
(PID.TID 0000.0001)  MDS_WRITE_FIELD: it,rec,kS,kL,kH=       1     2   1   1   1 file=xx_atemp.effective.0000000001
(PID.TID 0000.0001)  MDS_READ_FIELD: opening global file: xx_atemp.0000000001.data
(PID.TID 0000.0001)  MDS_WRITE_FIELD: it,rec,kS,kL,kH=       1     3   1   1   1 file=xx_atemp.effective.0000000001
(PID.TID 0000.0001)  MDS_READ_FIELD: opening global file: xx_atemp.0000000001.data
(PID.TID 0000.0001)  MDS_WRITE_FIELD: it,rec,kS,kL,kH=       1     4   1   1   1 file=xx_atemp.effective.0000000001
(PID.TID 0000.0001)  MDS_READ_FIELD: opening global file: xx_atemp.0000000001.data
(PID.TID 0000.0001)  MDS_WRITE_FIELD: it,rec,kS,kL,kH=       1     5   1   1   1 file=xx_atemp.effective.0000000001
(PID.TID 0000.0001)  MDS_READ_FIELD: opening global file: xx_atemp.0000000001.data
(PID.TID 0000.0001)  MDS_WRITE_FIELD: it,rec,kS,kL,kH=       1     6   1   1   1 file=xx_atemp.effective.0000000001
(PID.TID 0000.0001)  MDS_READ_FIELD: opening global file: xx_atemp.0000000001.data
(PID.TID 0000.0001)  MDS_WRITE_FIELD: it,rec,kS,kL,kH=       1     7   1   1   1 file=xx_atemp.effective.0000000001
(PID.TID 0000.0001)  MDS_READ_FIELD: opening global file: xx_atemp.0000000001.data
(PID.TID 0000.0001)  MDS_WRITE_FIELD: it,rec,kS,kL,kH=       1     8   1   1   1 file=xx_atemp.effective.0000000001
(PID.TID 0000.0001)  MDS_READ_FIELD: opening global file: xx_atemp.0000000001.data
(PID.TID 0000.0001)  MDS_WRITE_FIELD: it,rec,kS,kL,kH=       1     9   1   1   1 file=xx_atemp.effective.0000000001
(PID.TID 0000.0001)  MDS_READ_FIELD: opening global file: xx_atemp.0000000001.data
(PID.TID 0000.0001)  MDS_WRITE_FIELD: it,rec,kS,kL,kH=       1    10   1   1   1 file=xx_atemp.effective.0000000001
(PID.TID 0000.0001)  MDS_READ_FIELD: opening global file: xx_atemp.0000000001.data
(PID.TID 0000.0001)  MDS_WRITE_FIELD: it,rec,kS,kL,kH=       1    11   1   1   1 file=xx_atemp.effective.0000000001
(PID.TID 0000.0001)  MDS_READ_FIELD: opening global file: xx_atemp.effective.0000000001.data
(PID.TID 0000.0001)  MDS_READ_FIELD: opening global file: ones_64b.bin
(PID.TID 0000.0001)  MDS_WRITE_FIELD: it,rec,kS,kL,kH=       1     1   1   1   1 file=xx_atemp.effective.0000000001
(PID.TID 0000.0001)  MDS_READ_FIELD: opening global file: xx_atemp.effective.0000000001.data
(PID.TID 0000.0001)  MDS_READ_FIELD: opening global file: ones_64b.bin
(PID.TID 0000.0001)  MDS_WRITE_FIELD: it,rec,kS,kL,kH=       1     2   1   1   1 file=xx_atemp.effective.0000000001
(PID.TID 0000.0001)  MDS_READ_FIELD: opening global file: xx_atemp.effective.0000000001.data
(PID.TID 0000.0001)  MDS_READ_FIELD: opening global file: ones_64b.bin
(PID.TID 0000.0001)  MDS_WRITE_FIELD: it,rec,kS,kL,kH=       1     3   1   1   1 file=xx_atemp.effective.0000000001
(PID.TID 0000.0001)  MDS_READ_FIELD: opening global file: xx_atemp.effective.0000000001.data
(PID.TID 0000.0001)  MDS_READ_FIELD: opening global file: ones_64b.bin
(PID.TID 0000.0001)  MDS_WRITE_FIELD: it,rec,kS,kL,kH=       1     4   1   1   1 file=xx_atemp.effective.0000000001
(PID.TID 0000.0001)  MDS_READ_FIELD: opening global file: xx_atemp.effective.0000000001.data
(PID.TID 0000.0001)  MDS_READ_FIELD: opening global file: ones_64b.bin
(PID.TID 0000.0001)  MDS_WRITE_FIELD: it,rec,kS,kL,kH=       1     5   1   1   1 file=xx_atemp.effective.0000000001
(PID.TID 0000.0001)  MDS_READ_FIELD: opening global file: xx_atemp.effective.0000000001.data
(PID.TID 0000.0001)  MDS_READ_FIELD: opening global file: ones_64b.bin
(PID.TID 0000.0001)  MDS_WRITE_FIELD: it,rec,kS,kL,kH=       1     6   1   1   1 file=xx_atemp.effective.0000000001
(PID.TID 0000.0001)  MDS_READ_FIELD: opening global file: xx_atemp.effective.0000000001.data
(PID.TID 0000.0001)  MDS_READ_FIELD: opening global file: ones_64b.bin
(PID.TID 0000.0001)  MDS_WRITE_FIELD: it,rec,kS,kL,kH=       1     7   1   1   1 file=xx_atemp.effective.0000000001
(PID.TID 0000.0001)  MDS_READ_FIELD: opening global file: xx_atemp.effective.0000000001.data
(PID.TID 0000.0001)  MDS_READ_FIELD: opening global file: ones_64b.bin
(PID.TID 0000.0001)  MDS_WRITE_FIELD: it,rec,kS,kL,kH=       1     8   1   1   1 file=xx_atemp.effective.0000000001
(PID.TID 0000.0001)  MDS_READ_FIELD: opening global file: xx_atemp.effective.0000000001.data
(PID.TID 0000.0001)  MDS_READ_FIELD: opening global file: ones_64b.bin
(PID.TID 0000.0001)  MDS_WRITE_FIELD: it,rec,kS,kL,kH=       1     9   1   1   1 file=xx_atemp.effective.0000000001
(PID.TID 0000.0001)  MDS_READ_FIELD: opening global file: xx_atemp.effective.0000000001.data
(PID.TID 0000.0001)  MDS_READ_FIELD: opening global file: ones_64b.bin
(PID.TID 0000.0001)  MDS_WRITE_FIELD: it,rec,kS,kL,kH=       1    10   1   1   1 file=xx_atemp.effective.0000000001
(PID.TID 0000.0001)  MDS_READ_FIELD: opening global file: xx_atemp.effective.0000000001.data
(PID.TID 0000.0001)  MDS_READ_FIELD: opening global file: ones_64b.bin
(PID.TID 0000.0001)  MDS_WRITE_FIELD: it,rec,kS,kL,kH=       1    11   1   1   1 file=xx_atemp.effective.0000000001
(PID.TID 0000.0001) // =======================================================
(PID.TID 0000.0001) // Model current state
(PID.TID 0000.0001) // =======================================================
(PID.TID 0000.0001) 
(PID.TID 0000.0001)  MDS_WRITE_FIELD: it,rec,kS,kL,kH=       1     1   1   1   1 file=m_sst_step.0000000001
(PID.TID 0000.0001)  MDS_READ_FIELD: opening global file: xx_atemp.effective.0000000001.data
(PID.TID 0000.0001)  MDS_READ_FIELD: opening global file: xx_atemp.effective.0000000001.data
(PID.TID 0000.0001) EXF_SET_FLD: processing field "climsss",  file: SSS_monthly.labsea1979
(PID.TID 0000.0001) EXF_SET_FLD:   myIter, count0, count1:         0      1      2
(PID.TID 0000.0001) EXF_SET_FLD:   first, changed, fac:   T   F    0.50000000000000000
(PID.TID 0000.0001) EXF_SET_FLD: field "climsss", it=         0, loading rec=     1
(PID.TID 0000.0001) EXF_SET_FLD:   from file: "SSS_monthly.labsea1979"
(PID.TID 0000.0001)  MDS_READ_FIELD: opening global file: SSS_monthly.labsea1979
(PID.TID 0000.0001) EXF_SET_FLD: field "climsss", it=         0, loading rec=     2
(PID.TID 0000.0001) EXF_SET_FLD:   from file: "SSS_monthly.labsea1979"
(PID.TID 0000.0001)  MDS_READ_FIELD: opening global file: SSS_monthly.labsea1979
(PID.TID 0000.0001) EXF_SET_FLD: processing field "uwind",  file: u10m.labsea1979
(PID.TID 0000.0001) EXF_SET_FLD:   myIter, count0, count1:         0      1      2
(PID.TID 0000.0001) EXF_SET_FLD:   first, changed, fac:   T   F    0.50000000000000000
(PID.TID 0000.0001) EXF_SET_FLD: field "uwind", it=         0, loading rec=     1
(PID.TID 0000.0001) EXF_SET_FLD:   from file: "u10m.labsea1979"
(PID.TID 0000.0001)  MDS_READ_FIELD: opening global file: u10m.labsea1979
(PID.TID 0000.0001) EXF_SET_FLD: field "uwind", it=         0, loading rec=     2
(PID.TID 0000.0001) EXF_SET_FLD:   from file: "u10m.labsea1979"
(PID.TID 0000.0001)  MDS_READ_FIELD: opening global file: u10m.labsea1979
(PID.TID 0000.0001) EXF_SET_FLD: processing field "vwind",  file: v10m.labsea1979
(PID.TID 0000.0001) EXF_SET_FLD:   myIter, count0, count1:         0      1      2
(PID.TID 0000.0001) EXF_SET_FLD:   first, changed, fac:   T   F    0.50000000000000000
(PID.TID 0000.0001) EXF_SET_FLD: field "vwind", it=         0, loading rec=     1
(PID.TID 0000.0001) EXF_SET_FLD:   from file: "v10m.labsea1979"
(PID.TID 0000.0001)  MDS_READ_FIELD: opening global file: v10m.labsea1979
(PID.TID 0000.0001) EXF_SET_FLD: field "vwind", it=         0, loading rec=     2
(PID.TID 0000.0001) EXF_SET_FLD:   from file: "v10m.labsea1979"
(PID.TID 0000.0001)  MDS_READ_FIELD: opening global file: v10m.labsea1979
(PID.TID 0000.0001) EXF_SET_FLD: processing field "atemp",  file: tair.labsea1979
(PID.TID 0000.0001) EXF_SET_FLD:   myIter, count0, count1:         0      1      2
(PID.TID 0000.0001) EXF_SET_FLD:   first, changed, fac:   T   F    0.50000000000000000
(PID.TID 0000.0001) EXF_SET_FLD: field "atemp", it=         0, loading rec=     1
(PID.TID 0000.0001) EXF_SET_FLD:   from file: "tair.labsea1979"
(PID.TID 0000.0001)  MDS_READ_FIELD: opening global file: tair.labsea1979
(PID.TID 0000.0001) EXF_SET_FLD: field "atemp", it=         0, loading rec=     2
(PID.TID 0000.0001) EXF_SET_FLD:   from file: "tair.labsea1979"
(PID.TID 0000.0001)  MDS_READ_FIELD: opening global file: tair.labsea1979
(PID.TID 0000.0001) EXF_SET_FLD: processing field "aqh",  file: qa.labsea1979
(PID.TID 0000.0001) EXF_SET_FLD:   myIter, count0, count1:         0      1      2
(PID.TID 0000.0001) EXF_SET_FLD:   first, changed, fac:   T   F    0.50000000000000000
(PID.TID 0000.0001) EXF_SET_FLD: field "aqh", it=         0, loading rec=     1
(PID.TID 0000.0001) EXF_SET_FLD:   from file: "qa.labsea1979"
(PID.TID 0000.0001)  MDS_READ_FIELD: opening global file: qa.labsea1979
(PID.TID 0000.0001) EXF_SET_FLD: field "aqh", it=         0, loading rec=     2
(PID.TID 0000.0001) EXF_SET_FLD:   from file: "qa.labsea1979"
(PID.TID 0000.0001)  MDS_READ_FIELD: opening global file: qa.labsea1979
(PID.TID 0000.0001) EXF_SET_FLD: processing field "precip",  file: prate.labsea1979
(PID.TID 0000.0001) EXF_SET_FLD:   myIter, count0, count1:         0      1      2
(PID.TID 0000.0001) EXF_SET_FLD:   first, changed, fac:   T   F    0.50000000000000000
(PID.TID 0000.0001) EXF_SET_FLD: field "precip", it=         0, loading rec=     1
(PID.TID 0000.0001) EXF_SET_FLD:   from file: "prate.labsea1979"
(PID.TID 0000.0001)  MDS_READ_FIELD: opening global file: prate.labsea1979
(PID.TID 0000.0001) EXF_SET_FLD: field "precip", it=         0, loading rec=     2
(PID.TID 0000.0001) EXF_SET_FLD:   from file: "prate.labsea1979"
(PID.TID 0000.0001)  MDS_READ_FIELD: opening global file: prate.labsea1979
(PID.TID 0000.0001) EXF_SET_FLD: processing field "swdown",  file: fsh.labsea1979
(PID.TID 0000.0001) EXF_SET_FLD:   myIter, count0, count1:         0      1      2
(PID.TID 0000.0001) EXF_SET_FLD:   first, changed, fac:   T   F    0.50000000000000000
(PID.TID 0000.0001) EXF_SET_FLD: field "swdown", it=         0, loading rec=     1
(PID.TID 0000.0001) EXF_SET_FLD:   from file: "fsh.labsea1979"
(PID.TID 0000.0001)  MDS_READ_FIELD: opening global file: fsh.labsea1979
(PID.TID 0000.0001) EXF_SET_FLD: field "swdown", it=         0, loading rec=     2
(PID.TID 0000.0001) EXF_SET_FLD:   from file: "fsh.labsea1979"
(PID.TID 0000.0001)  MDS_READ_FIELD: opening global file: fsh.labsea1979
(PID.TID 0000.0001) EXF_SET_FLD: processing field "lwdown",  file: flo.labsea1979
(PID.TID 0000.0001) EXF_SET_FLD:   myIter, count0, count1:         0      1      2
(PID.TID 0000.0001) EXF_SET_FLD:   first, changed, fac:   T   F    0.50000000000000000
(PID.TID 0000.0001) EXF_SET_FLD: field "lwdown", it=         0, loading rec=     1
(PID.TID 0000.0001) EXF_SET_FLD:   from file: "flo.labsea1979"
(PID.TID 0000.0001)  MDS_READ_FIELD: opening global file: flo.labsea1979
(PID.TID 0000.0001) EXF_SET_FLD: field "lwdown", it=         0, loading rec=     2
(PID.TID 0000.0001) EXF_SET_FLD:   from file: "flo.labsea1979"
(PID.TID 0000.0001)  MDS_READ_FIELD: opening global file: flo.labsea1979
DEBUG_STATS_RL: Uice pre  iter (SEAICE_LSR  1)  min=  0.00000000000000E+00
DEBUG_STATS_RL: Uice pre  iter (SEAICE_LSR  1)  max=  0.00000000000000E+00
DEBUG_STATS_RL: Uice pre  iter (SEAICE_LSR  1) mean=  0.00000000000000E+00
DEBUG_STATS_RL: Uice pre  iter (SEAICE_LSR  1) S.D.=  0.00000000000000E+00
DEBUG_STATS_RL: Vice pre  iter (SEAICE_LSR  1)  min=  0.00000000000000E+00
DEBUG_STATS_RL: Vice pre  iter (SEAICE_LSR  1)  max=  0.00000000000000E+00
DEBUG_STATS_RL: Vice pre  iter (SEAICE_LSR  1) mean=  0.00000000000000E+00
DEBUG_STATS_RL: Vice pre  iter (SEAICE_LSR  1) S.D.=  0.00000000000000E+00
DEBUG_STATS_RL: Uice pre  iter (SEAICE_LSR  2)  min= -4.74478293331770E-04
DEBUG_STATS_RL: Uice pre  iter (SEAICE_LSR  2)  max=  5.19863184318560E-03
DEBUG_STATS_RL: Uice pre  iter (SEAICE_LSR  2) mean=  1.15969103043184E-03
DEBUG_STATS_RL: Uice pre  iter (SEAICE_LSR  2) S.D.=  1.37050304765703E-03
DEBUG_STATS_RL: Vice pre  iter (SEAICE_LSR  2)  min= -2.82028703630720E-03
DEBUG_STATS_RL: Vice pre  iter (SEAICE_LSR  2)  max=  8.55909305417855E-04
DEBUG_STATS_RL: Vice pre  iter (SEAICE_LSR  2) mean= -7.32602707228794E-04
DEBUG_STATS_RL: Vice pre  iter (SEAICE_LSR  2) S.D.=  9.65742386214621E-04
DEBUG_STATS_RL:                EtaN (DYNAMICS)  min=  0.00000000000000E+00
DEBUG_STATS_RL:                EtaN (DYNAMICS)  max=  0.00000000000000E+00
DEBUG_STATS_RL:                EtaN (DYNAMICS) mean=  0.00000000000000E+00
DEBUG_STATS_RL:                EtaN (DYNAMICS) S.D.=  0.00000000000000E+00
DEBUG_STATS_RL:                Uvel (DYNAMICS)  min=  0.00000000000000E+00
DEBUG_STATS_RL:                Uvel (DYNAMICS)  max=  0.00000000000000E+00
DEBUG_STATS_RL:                Uvel (DYNAMICS) mean=  0.00000000000000E+00
DEBUG_STATS_RL:                Uvel (DYNAMICS) S.D.=  0.00000000000000E+00
DEBUG_STATS_RL:                Vvel (DYNAMICS)  min=  0.00000000000000E+00
DEBUG_STATS_RL:                Vvel (DYNAMICS)  max=  0.00000000000000E+00
DEBUG_STATS_RL:                Vvel (DYNAMICS) mean=  0.00000000000000E+00
DEBUG_STATS_RL:                Vvel (DYNAMICS) S.D.=  0.00000000000000E+00
DEBUG_STATS_RL:                Wvel (DYNAMICS)  min=  0.00000000000000E+00
DEBUG_STATS_RL:                Wvel (DYNAMICS)  max=  0.00000000000000E+00
DEBUG_STATS_RL:                Wvel (DYNAMICS) mean=  0.00000000000000E+00
DEBUG_STATS_RL:                Wvel (DYNAMICS) S.D.=  0.00000000000000E+00
DEBUG_STATS_RL:               Theta (DYNAMICS)  min= -1.41036188602448E+00
DEBUG_STATS_RL:               Theta (DYNAMICS)  max=  1.33330764770508E+01
DEBUG_STATS_RL:               Theta (DYNAMICS) mean=  2.90475522269124E+00
DEBUG_STATS_RL:               Theta (DYNAMICS) S.D.=  2.44037465259698E+00
DEBUG_STATS_RL:                Salt (DYNAMICS)  min=  3.01286983489990E+01
DEBUG_STATS_RL:                Salt (DYNAMICS)  max=  3.54506225585938E+01
DEBUG_STATS_RL:                Salt (DYNAMICS) mean=  3.40845304745500E+01
DEBUG_STATS_RL:                Salt (DYNAMICS) S.D.=  9.00924836964808E-01
DEBUG_STATS_RL:                  Gu (DYNAMICS)  min= -2.00599447531986E-02
DEBUG_STATS_RL:                  Gu (DYNAMICS)  max=  1.04076999541495E-02
DEBUG_STATS_RL:                  Gu (DYNAMICS) mean= -2.58939542765896E-03
DEBUG_STATS_RL:                  Gu (DYNAMICS) S.D.=  4.84472279217175E-03
DEBUG_STATS_RL:                  Gv (DYNAMICS)  min= -2.97181268783620E-02
DEBUG_STATS_RL:                  Gv (DYNAMICS)  max=  1.05795727308992E-02
DEBUG_STATS_RL:                  Gv (DYNAMICS) mean= -1.51075895161939E-03
DEBUG_STATS_RL:                  Gv (DYNAMICS) S.D.=  5.23505354600419E-03
DEBUG_STATS_RL:               GuNm1 (DYNAMICS)  min=  0.00000000000000E+00
DEBUG_STATS_RL:               GuNm1 (DYNAMICS)  max=  0.00000000000000E+00
DEBUG_STATS_RL:               GuNm1 (DYNAMICS) mean=  0.00000000000000E+00
DEBUG_STATS_RL:               GuNm1 (DYNAMICS) S.D.=  0.00000000000000E+00
DEBUG_STATS_RL:               GvNm1 (DYNAMICS)  min=  0.00000000000000E+00
DEBUG_STATS_RL:               GvNm1 (DYNAMICS)  max=  0.00000000000000E+00
DEBUG_STATS_RL:               GvNm1 (DYNAMICS) mean=  0.00000000000000E+00
DEBUG_STATS_RL:               GvNm1 (DYNAMICS) S.D.=  0.00000000000000E+00
DEBUG_STATS_RL:               GtNm1 (DYNAMICS)  min=  0.00000000000000E+00
DEBUG_STATS_RL:               GtNm1 (DYNAMICS)  max=  0.00000000000000E+00
DEBUG_STATS_RL:               GtNm1 (DYNAMICS) mean=  0.00000000000000E+00
DEBUG_STATS_RL:               GtNm1 (DYNAMICS) S.D.=  0.00000000000000E+00
DEBUG_STATS_RL:               GsNm1 (DYNAMICS)  min=  0.00000000000000E+00
DEBUG_STATS_RL:               GsNm1 (DYNAMICS)  max=  0.00000000000000E+00
DEBUG_STATS_RL:               GsNm1 (DYNAMICS) mean=  0.00000000000000E+00
DEBUG_STATS_RL:               GsNm1 (DYNAMICS) S.D.=  0.00000000000000E+00
(PID.TID 0000.0001) SOLVE_FOR_PRESSURE: putPmEinXvector =    F
DEBUG_STATS_RL:    cg2d_b (SOLVE_FOR_PRESSURE)  min= -6.15797366908278E+03
DEBUG_STATS_RL:    cg2d_b (SOLVE_FOR_PRESSURE)  max=  2.03762696322118E+03
DEBUG_STATS_RL:    cg2d_b (SOLVE_FOR_PRESSURE) mean=  2.40637139844087E-14
DEBUG_STATS_RL:    cg2d_b (SOLVE_FOR_PRESSURE) S.D.=  8.03730450548215E+02
 cg2d: Sum(rhs),rhsMax =   7.91033905045424E-16  9.91122157459750E-01
DEBUG_STATS_RL:    cg2d_x (SOLVE_FOR_PRESSURE)  min= -7.77200124675132E-01
DEBUG_STATS_RL:    cg2d_x (SOLVE_FOR_PRESSURE)  max=  2.02552651121663E+00
DEBUG_STATS_RL:    cg2d_x (SOLVE_FOR_PRESSURE) mean= -8.58037095103906E-03
DEBUG_STATS_RL:    cg2d_x (SOLVE_FOR_PRESSURE) S.D.=  4.14863218307968E-01
DEBUG_STATS_RL:          Uvel (THERMODYNAMICS)  min= -1.97613285723242E-02
DEBUG_STATS_RL:          Uvel (THERMODYNAMICS)  max=  1.31897193240012E-02
DEBUG_STATS_RL:          Uvel (THERMODYNAMICS) mean= -7.76915115649382E-04
DEBUG_STATS_RL:          Uvel (THERMODYNAMICS) S.D.=  3.97168834923499E-03
DEBUG_STATS_RL:          Vvel (THERMODYNAMICS)  min= -1.13773235335529E-02
DEBUG_STATS_RL:          Vvel (THERMODYNAMICS)  max=  2.04284639774261E-02
DEBUG_STATS_RL:          Vvel (THERMODYNAMICS) mean=  7.24190880687442E-04
DEBUG_STATS_RL:          Vvel (THERMODYNAMICS) S.D.=  4.28907995073846E-03
DEBUG_STATS_RL:          Wvel (THERMODYNAMICS)  min= -4.27131465138430E-05
DEBUG_STATS_RL:          Wvel (THERMODYNAMICS)  max=  1.16530364658749E-04
DEBUG_STATS_RL:          Wvel (THERMODYNAMICS) mean= -4.07763417598552E-07
DEBUG_STATS_RL:          Wvel (THERMODYNAMICS) S.D.=  1.80149904412009E-05
DEBUG_STATS_RL:         Theta (THERMODYNAMICS)  min= -1.41019615972461E+00
DEBUG_STATS_RL:         Theta (THERMODYNAMICS)  max=  1.32440592110212E+01
DEBUG_STATS_RL:         Theta (THERMODYNAMICS) mean=  2.49735783552472E+00
DEBUG_STATS_RL:         Theta (THERMODYNAMICS) S.D.=  2.45807980529386E+00
DEBUG_STATS_RL:          Salt (THERMODYNAMICS)  min=  2.76560994014067E+01
DEBUG_STATS_RL:          Salt (THERMODYNAMICS)  max=  3.54507778736995E+01
DEBUG_STATS_RL:          Salt (THERMODYNAMICS) mean=  3.39623217189225E+01
DEBUG_STATS_RL:          Salt (THERMODYNAMICS) S.D.=  1.10108958710667E+00
DEBUG_STATS_RL:         GtNm1 (THERMODYNAMICS)  min=  0.00000000000000E+00
DEBUG_STATS_RL:         GtNm1 (THERMODYNAMICS)  max=  0.00000000000000E+00
DEBUG_STATS_RL:         GtNm1 (THERMODYNAMICS) mean=  0.00000000000000E+00
DEBUG_STATS_RL:         GtNm1 (THERMODYNAMICS) S.D.=  0.00000000000000E+00
DEBUG_STATS_RL:         GsNm1 (THERMODYNAMICS)  min=  0.00000000000000E+00
DEBUG_STATS_RL:         GsNm1 (THERMODYNAMICS)  max=  0.00000000000000E+00
DEBUG_STATS_RL:         GsNm1 (THERMODYNAMICS) mean=  0.00000000000000E+00
DEBUG_STATS_RL:         GsNm1 (THERMODYNAMICS) S.D.=  0.00000000000000E+00
(PID.TID 0000.0001)  MDS_WRITE_FIELD: it,rec,kS,kL,kH=       1     2   1   1   1 file=m_sst_step.0000000001
(PID.TID 0000.0001)  MDS_READ_FIELD: opening global file: xx_atemp.effective.0000000001.data
(PID.TID 0000.0001) EXF_SET_FLD: processing field "climsss",  file: SSS_monthly.labsea1979
(PID.TID 0000.0001) EXF_SET_FLD:   myIter, count0, count1:         1      1      2
(PID.TID 0000.0001) EXF_SET_FLD:   first, changed, fac:   F   F    0.49863387978142082
(PID.TID 0000.0001) EXF_SET_FLD: processing field "uwind",  file: u10m.labsea1979
(PID.TID 0000.0001) EXF_SET_FLD:   myIter, count0, count1:         1      1      2
(PID.TID 0000.0001) EXF_SET_FLD:   first, changed, fac:   F   F    0.49863387978142082
(PID.TID 0000.0001) EXF_SET_FLD: processing field "vwind",  file: v10m.labsea1979
(PID.TID 0000.0001) EXF_SET_FLD:   myIter, count0, count1:         1      1      2
(PID.TID 0000.0001) EXF_SET_FLD:   first, changed, fac:   F   F    0.49863387978142082
(PID.TID 0000.0001) EXF_SET_FLD: processing field "atemp",  file: tair.labsea1979
(PID.TID 0000.0001) EXF_SET_FLD:   myIter, count0, count1:         1      1      2
(PID.TID 0000.0001) EXF_SET_FLD:   first, changed, fac:   F   F    0.49863387978142082
(PID.TID 0000.0001) EXF_SET_FLD: processing field "aqh",  file: qa.labsea1979
(PID.TID 0000.0001) EXF_SET_FLD:   myIter, count0, count1:         1      1      2
(PID.TID 0000.0001) EXF_SET_FLD:   first, changed, fac:   F   F    0.49863387978142082
(PID.TID 0000.0001) EXF_SET_FLD: processing field "precip",  file: prate.labsea1979
(PID.TID 0000.0001) EXF_SET_FLD:   myIter, count0, count1:         1      1      2
(PID.TID 0000.0001) EXF_SET_FLD:   first, changed, fac:   F   F    0.49863387978142082
(PID.TID 0000.0001) EXF_SET_FLD: processing field "swdown",  file: fsh.labsea1979
(PID.TID 0000.0001) EXF_SET_FLD:   myIter, count0, count1:         1      1      2
(PID.TID 0000.0001) EXF_SET_FLD:   first, changed, fac:   F   F    0.49863387978142082
(PID.TID 0000.0001) EXF_SET_FLD: processing field "lwdown",  file: flo.labsea1979
(PID.TID 0000.0001) EXF_SET_FLD:   myIter, count0, count1:         1      1      2
(PID.TID 0000.0001) EXF_SET_FLD:   first, changed, fac:   F   F    0.49863387978142082
DEBUG_STATS_RL: Uice pre  iter (SEAICE_LSR  1)  min= -1.15942749827435E-03
DEBUG_STATS_RL: Uice pre  iter (SEAICE_LSR  1)  max=  1.20418167656252E-02
DEBUG_STATS_RL: Uice pre  iter (SEAICE_LSR  1) mean=  2.64506216410235E-03
DEBUG_STATS_RL: Uice pre  iter (SEAICE_LSR  1) S.D.=  3.13774756817759E-03
DEBUG_STATS_RL: Vice pre  iter (SEAICE_LSR  1)  min= -5.99336397479914E-03
DEBUG_STATS_RL: Vice pre  iter (SEAICE_LSR  1)  max=  4.08760906980194E-03
DEBUG_STATS_RL: Vice pre  iter (SEAICE_LSR  1) mean= -1.18494610218030E-03
DEBUG_STATS_RL: Vice pre  iter (SEAICE_LSR  1) S.D.=  2.51572614879252E-03
DEBUG_STATS_RL: Uice pre  iter (SEAICE_LSR  2)  min= -1.66461661595648E-03
DEBUG_STATS_RL: Uice pre  iter (SEAICE_LSR  2)  max=  2.05817158221004E-01
DEBUG_STATS_RL: Uice pre  iter (SEAICE_LSR  2) mean=  2.18937658776791E-02
DEBUG_STATS_RL: Uice pre  iter (SEAICE_LSR  2) S.D.=  4.15140060700845E-02
DEBUG_STATS_RL: Vice pre  iter (SEAICE_LSR  2)  min= -1.15170217247387E-02
DEBUG_STATS_RL: Vice pre  iter (SEAICE_LSR  2)  max=  6.02623623339015E-02
DEBUG_STATS_RL: Vice pre  iter (SEAICE_LSR  2) mean= -5.88552864274657E-04
DEBUG_STATS_RL: Vice pre  iter (SEAICE_LSR  2) S.D.=  1.21471679480357E-02
DEBUG_STATS_RL:                EtaN (DYNAMICS)  min= -7.91800933896177E-02
DEBUG_STATS_RL:                EtaN (DYNAMICS)  max=  2.06357890624784E-01
DEBUG_STATS_RL:                EtaN (DYNAMICS) mean= -8.74156541733471E-04
DEBUG_STATS_RL:                EtaN (DYNAMICS) S.D.=  4.22657013639480E-02
DEBUG_STATS_RL:                Uvel (DYNAMICS)  min= -1.97613285723242E-02
DEBUG_STATS_RL:                Uvel (DYNAMICS)  max=  1.31897193240012E-02
DEBUG_STATS_RL:                Uvel (DYNAMICS) mean= -7.76915115649382E-04
DEBUG_STATS_RL:                Uvel (DYNAMICS) S.D.=  3.97168834923499E-03
DEBUG_STATS_RL:                Vvel (DYNAMICS)  min= -1.13773235335529E-02
DEBUG_STATS_RL:                Vvel (DYNAMICS)  max=  2.04284639774261E-02
DEBUG_STATS_RL:                Vvel (DYNAMICS) mean=  7.24190880687442E-04
DEBUG_STATS_RL:                Vvel (DYNAMICS) S.D.=  4.28907995073846E-03
DEBUG_STATS_RL:                Wvel (DYNAMICS)  min= -4.27131465138430E-05
DEBUG_STATS_RL:                Wvel (DYNAMICS)  max=  1.16530364658749E-04
DEBUG_STATS_RL:                Wvel (DYNAMICS) mean= -4.07763417598552E-07
DEBUG_STATS_RL:                Wvel (DYNAMICS) S.D.=  1.80149904412009E-05
DEBUG_STATS_RL:               Theta (DYNAMICS)  min= -1.41019615972461E+00
DEBUG_STATS_RL:               Theta (DYNAMICS)  max=  1.32440592110212E+01
DEBUG_STATS_RL:               Theta (DYNAMICS) mean=  2.49735783552472E+00
DEBUG_STATS_RL:               Theta (DYNAMICS) S.D.=  2.45807980529386E+00
DEBUG_STATS_RL:                Salt (DYNAMICS)  min=  2.76560994014067E+01
DEBUG_STATS_RL:                Salt (DYNAMICS)  max=  3.54507778736995E+01
DEBUG_STATS_RL:                Salt (DYNAMICS) mean=  3.39623217189225E+01
DEBUG_STATS_RL:                Salt (DYNAMICS) S.D.=  1.10108958710667E+00
DEBUG_STATS_RL:                  Gu (DYNAMICS)  min= -2.89112950168885E-02
DEBUG_STATS_RL:                  Gu (DYNAMICS)  max=  3.25741619058353E-02
DEBUG_STATS_RL:                  Gu (DYNAMICS) mean= -2.32520622241993E-03
DEBUG_STATS_RL:                  Gu (DYNAMICS) S.D.=  7.09155735785932E-03
DEBUG_STATS_RL:                  Gv (DYNAMICS)  min= -3.71241625510621E-02
DEBUG_STATS_RL:                  Gv (DYNAMICS)  max=  1.83230442031147E-02
DEBUG_STATS_RL:                  Gv (DYNAMICS) mean= -1.89259208722304E-03
DEBUG_STATS_RL:                  Gv (DYNAMICS) S.D.=  7.31046974975951E-03
DEBUG_STATS_RL:               GuNm1 (DYNAMICS)  min= -1.80289983389196E-07
DEBUG_STATS_RL:               GuNm1 (DYNAMICS)  max=  1.49251399870334E-07
DEBUG_STATS_RL:               GuNm1 (DYNAMICS) mean=  3.41794292088730E-09
DEBUG_STATS_RL:               GuNm1 (DYNAMICS) S.D.=  3.19693794884499E-08
DEBUG_STATS_RL:               GvNm1 (DYNAMICS)  min= -5.11118133734402E-08
DEBUG_STATS_RL:               GvNm1 (DYNAMICS)  max=  4.88281454922596E-08
DEBUG_STATS_RL:               GvNm1 (DYNAMICS) mean= -4.70245831256227E-11
DEBUG_STATS_RL:               GvNm1 (DYNAMICS) S.D.=  1.42003013108260E-08
DEBUG_STATS_RL:               GtNm1 (DYNAMICS)  min=  0.00000000000000E+00
DEBUG_STATS_RL:               GtNm1 (DYNAMICS)  max=  0.00000000000000E+00
DEBUG_STATS_RL:               GtNm1 (DYNAMICS) mean=  0.00000000000000E+00
DEBUG_STATS_RL:               GtNm1 (DYNAMICS) S.D.=  0.00000000000000E+00
DEBUG_STATS_RL:               GsNm1 (DYNAMICS)  min=  0.00000000000000E+00
DEBUG_STATS_RL:               GsNm1 (DYNAMICS)  max=  0.00000000000000E+00
DEBUG_STATS_RL:               GsNm1 (DYNAMICS) mean=  0.00000000000000E+00
DEBUG_STATS_RL:               GsNm1 (DYNAMICS) S.D.=  0.00000000000000E+00
DEBUG_STATS_RL:    cg2d_b (SOLVE_FOR_PRESSURE)  min= -7.40048897093643E+03
DEBUG_STATS_RL:    cg2d_b (SOLVE_FOR_PRESSURE)  max=  2.33428667016753E+03
DEBUG_STATS_RL:    cg2d_b (SOLVE_FOR_PRESSURE) mean=  6.46120194384518E-14
DEBUG_STATS_RL:    cg2d_b (SOLVE_FOR_PRESSURE) S.D.=  9.39768538610268E+02
 cg2d: Sum(rhs),rhsMax =   1.67921232474555E-15  1.19110424780756E+00
DEBUG_STATS_RL:    cg2d_x (SOLVE_FOR_PRESSURE)  min= -1.25977767814695E+00
DEBUG_STATS_RL:    cg2d_x (SOLVE_FOR_PRESSURE)  max=  2.83276936769460E+00
DEBUG_STATS_RL:    cg2d_x (SOLVE_FOR_PRESSURE) mean= -1.56118539430763E-02
DEBUG_STATS_RL:    cg2d_x (SOLVE_FOR_PRESSURE) S.D.=  6.63083405130249E-01
DEBUG_STATS_RL:          Uvel (THERMODYNAMICS)  min= -4.02432897586645E-02
DEBUG_STATS_RL:          Uvel (THERMODYNAMICS)  max=  3.23458159885740E-02
DEBUG_STATS_RL:          Uvel (THERMODYNAMICS) mean=  6.75465330200930E-04
DEBUG_STATS_RL:          Uvel (THERMODYNAMICS) S.D.=  7.33761384667395E-03
DEBUG_STATS_RL:          Vvel (THERMODYNAMICS)  min= -1.64862319058739E-02
DEBUG_STATS_RL:          Vvel (THERMODYNAMICS)  max=  4.21759382970965E-02
DEBUG_STATS_RL:          Vvel (THERMODYNAMICS) mean=  1.82858022907044E-03
DEBUG_STATS_RL:          Vvel (THERMODYNAMICS) S.D.=  8.08424055894322E-03
DEBUG_STATS_RL:          Wvel (THERMODYNAMICS)  min= -6.56490529174619E-05
DEBUG_STATS_RL:          Wvel (THERMODYNAMICS)  max=  1.68683217295646E-04
DEBUG_STATS_RL:          Wvel (THERMODYNAMICS) mean= -4.30739495112394E-07
DEBUG_STATS_RL:          Wvel (THERMODYNAMICS) S.D.=  1.89945067258249E-05
DEBUG_STATS_RL:         Theta (THERMODYNAMICS)  min= -1.83156742552816E+00
DEBUG_STATS_RL:         Theta (THERMODYNAMICS)  max=  1.32606612249659E+01
DEBUG_STATS_RL:         Theta (THERMODYNAMICS) mean=  2.43057765558689E+00
DEBUG_STATS_RL:         Theta (THERMODYNAMICS) S.D.=  2.55246643542934E+00
DEBUG_STATS_RL:          Salt (THERMODYNAMICS)  min=  2.76092906345221E+01
DEBUG_STATS_RL:          Salt (THERMODYNAMICS)  max=  3.54509236522671E+01
DEBUG_STATS_RL:          Salt (THERMODYNAMICS) mean=  3.39413044254426E+01
DEBUG_STATS_RL:          Salt (THERMODYNAMICS) S.D.=  1.14495872836752E+00
DEBUG_STATS_RL:         GtNm1 (THERMODYNAMICS)  min=  0.00000000000000E+00
DEBUG_STATS_RL:         GtNm1 (THERMODYNAMICS)  max=  0.00000000000000E+00
DEBUG_STATS_RL:         GtNm1 (THERMODYNAMICS) mean=  0.00000000000000E+00
DEBUG_STATS_RL:         GtNm1 (THERMODYNAMICS) S.D.=  0.00000000000000E+00
DEBUG_STATS_RL:         GsNm1 (THERMODYNAMICS)  min=  0.00000000000000E+00
DEBUG_STATS_RL:         GsNm1 (THERMODYNAMICS)  max=  0.00000000000000E+00
DEBUG_STATS_RL:         GsNm1 (THERMODYNAMICS) mean=  0.00000000000000E+00
DEBUG_STATS_RL:         GsNm1 (THERMODYNAMICS) S.D.=  0.00000000000000E+00
(PID.TID 0000.0001)  MDS_WRITE_FIELD: it,rec,kS,kL,kH=       1     3   1   1   1 file=m_sst_step.0000000001
(PID.TID 0000.0001)  MDS_READ_FIELD: opening global file: xx_atemp.effective.0000000001.data
(PID.TID 0000.0001) EXF_SET_FLD: processing field "climsss",  file: SSS_monthly.labsea1979
(PID.TID 0000.0001) EXF_SET_FLD:   myIter, count0, count1:         2      1      2
(PID.TID 0000.0001) EXF_SET_FLD:   first, changed, fac:   F   F    0.49726775956284153
(PID.TID 0000.0001) EXF_SET_FLD: processing field "uwind",  file: u10m.labsea1979
(PID.TID 0000.0001) EXF_SET_FLD:   myIter, count0, count1:         2      1      2
(PID.TID 0000.0001) EXF_SET_FLD:   first, changed, fac:   F   F    0.49726775956284153
(PID.TID 0000.0001) EXF_SET_FLD: processing field "vwind",  file: v10m.labsea1979
(PID.TID 0000.0001) EXF_SET_FLD:   myIter, count0, count1:         2      1      2
(PID.TID 0000.0001) EXF_SET_FLD:   first, changed, fac:   F   F    0.49726775956284153
(PID.TID 0000.0001) EXF_SET_FLD: processing field "atemp",  file: tair.labsea1979
(PID.TID 0000.0001) EXF_SET_FLD:   myIter, count0, count1:         2      1      2
(PID.TID 0000.0001) EXF_SET_FLD:   first, changed, fac:   F   F    0.49726775956284153
(PID.TID 0000.0001) EXF_SET_FLD: processing field "aqh",  file: qa.labsea1979
(PID.TID 0000.0001) EXF_SET_FLD:   myIter, count0, count1:         2      1      2
(PID.TID 0000.0001) EXF_SET_FLD:   first, changed, fac:   F   F    0.49726775956284153
(PID.TID 0000.0001) EXF_SET_FLD: processing field "precip",  file: prate.labsea1979
(PID.TID 0000.0001) EXF_SET_FLD:   myIter, count0, count1:         2      1      2
(PID.TID 0000.0001) EXF_SET_FLD:   first, changed, fac:   F   F    0.49726775956284153
(PID.TID 0000.0001) EXF_SET_FLD: processing field "swdown",  file: fsh.labsea1979
(PID.TID 0000.0001) EXF_SET_FLD:   myIter, count0, count1:         2      1      2
(PID.TID 0000.0001) EXF_SET_FLD:   first, changed, fac:   F   F    0.49726775956284153
(PID.TID 0000.0001) EXF_SET_FLD: processing field "lwdown",  file: flo.labsea1979
(PID.TID 0000.0001) EXF_SET_FLD:   myIter, count0, count1:         2      1      2
(PID.TID 0000.0001) EXF_SET_FLD:   first, changed, fac:   F   F    0.49726775956284153
DEBUG_STATS_RL: Uice pre  iter (SEAICE_LSR  1)  min= -2.72590911190849E-03
DEBUG_STATS_RL: Uice pre  iter (SEAICE_LSR  1)  max=  1.84821888363611E-01
DEBUG_STATS_RL: Uice pre  iter (SEAICE_LSR  1) mean=  4.43171854917597E-02
DEBUG_STATS_RL: Uice pre  iter (SEAICE_LSR  1) S.D.=  5.55969094951394E-02
DEBUG_STATS_RL: Vice pre  iter (SEAICE_LSR  1)  min= -3.16987209121493E-02
DEBUG_STATS_RL: Vice pre  iter (SEAICE_LSR  1)  max=  6.25866618672353E-02
DEBUG_STATS_RL: Vice pre  iter (SEAICE_LSR  1) mean= -5.92146683151422E-03
DEBUG_STATS_RL: Vice pre  iter (SEAICE_LSR  1) S.D.=  1.77615498824799E-02
DEBUG_STATS_RL: Uice pre  iter (SEAICE_LSR  2)  min= -3.50206878136266E-03
DEBUG_STATS_RL: Uice pre  iter (SEAICE_LSR  2)  max=  1.92025155896598E-01
DEBUG_STATS_RL: Uice pre  iter (SEAICE_LSR  2) mean=  5.29589963330016E-02
DEBUG_STATS_RL: Uice pre  iter (SEAICE_LSR  2) S.D.=  5.86189159298447E-02
DEBUG_STATS_RL: Vice pre  iter (SEAICE_LSR  2)  min= -6.12456112266856E-02
DEBUG_STATS_RL: Vice pre  iter (SEAICE_LSR  2)  max=  9.55317561460539E-02
DEBUG_STATS_RL: Vice pre  iter (SEAICE_LSR  2) mean= -1.11523016944028E-02
DEBUG_STATS_RL: Vice pre  iter (SEAICE_LSR  2) S.D.=  2.73762100042732E-02
DEBUG_STATS_RL:                EtaN (DYNAMICS)  min= -1.28344439274925E-01
DEBUG_STATS_RL:                EtaN (DYNAMICS)  max=  2.88598696737296E-01
DEBUG_STATS_RL:                EtaN (DYNAMICS) mean= -1.59051448134361E-03
DEBUG_STATS_RL:                EtaN (DYNAMICS) S.D.=  6.75540369544652E-02
DEBUG_STATS_RL:                Uvel (DYNAMICS)  min= -4.02432897586645E-02
DEBUG_STATS_RL:                Uvel (DYNAMICS)  max=  3.23458159885740E-02
DEBUG_STATS_RL:                Uvel (DYNAMICS) mean=  6.75465330200930E-04
DEBUG_STATS_RL:                Uvel (DYNAMICS) S.D.=  7.33761384667395E-03
DEBUG_STATS_RL:                Vvel (DYNAMICS)  min= -1.64862319058739E-02
DEBUG_STATS_RL:                Vvel (DYNAMICS)  max=  4.21759382970965E-02
DEBUG_STATS_RL:                Vvel (DYNAMICS) mean=  1.82858022907044E-03
DEBUG_STATS_RL:                Vvel (DYNAMICS) S.D.=  8.08424055894322E-03
DEBUG_STATS_RL:                Wvel (DYNAMICS)  min= -6.56490529174619E-05
DEBUG_STATS_RL:                Wvel (DYNAMICS)  max=  1.68683217295646E-04
DEBUG_STATS_RL:                Wvel (DYNAMICS) mean= -4.30739495112394E-07
DEBUG_STATS_RL:                Wvel (DYNAMICS) S.D.=  1.89945067258249E-05
DEBUG_STATS_RL:               Theta (DYNAMICS)  min= -1.83156742552816E+00
DEBUG_STATS_RL:               Theta (DYNAMICS)  max=  1.32606612249659E+01
DEBUG_STATS_RL:               Theta (DYNAMICS) mean=  2.43057765558689E+00
DEBUG_STATS_RL:               Theta (DYNAMICS) S.D.=  2.55246643542934E+00
DEBUG_STATS_RL:                Salt (DYNAMICS)  min=  2.76092906345221E+01
DEBUG_STATS_RL:                Salt (DYNAMICS)  max=  3.54509236522671E+01
DEBUG_STATS_RL:                Salt (DYNAMICS) mean=  3.39413044254426E+01
DEBUG_STATS_RL:                Salt (DYNAMICS) S.D.=  1.14495872836752E+00
DEBUG_STATS_RL:                  Gu (DYNAMICS)  min= -3.23510557472034E-02
DEBUG_STATS_RL:                  Gu (DYNAMICS)  max=  5.80377411255886E-02
DEBUG_STATS_RL:                  Gu (DYNAMICS) mean= -2.97572069536051E-04
DEBUG_STATS_RL:                  Gu (DYNAMICS) S.D.=  9.92934455351667E-03
DEBUG_STATS_RL:                  Gv (DYNAMICS)  min= -4.01882757136261E-02
DEBUG_STATS_RL:                  Gv (DYNAMICS)  max=  3.49568132071784E-02
DEBUG_STATS_RL:                  Gv (DYNAMICS) mean= -2.47632966123327E-03
DEBUG_STATS_RL:                  Gv (DYNAMICS) S.D.=  9.60357312383513E-03
DEBUG_STATS_RL:               GuNm1 (DYNAMICS)  min= -2.64915263690509E-07
DEBUG_STATS_RL:               GuNm1 (DYNAMICS)  max=  1.75889100747607E-07
DEBUG_STATS_RL:               GuNm1 (DYNAMICS) mean=  2.42191647085984E-09
DEBUG_STATS_RL:               GuNm1 (DYNAMICS) S.D.=  4.49076324943320E-08
DEBUG_STATS_RL:               GvNm1 (DYNAMICS)  min= -8.47298200116131E-08
DEBUG_STATS_RL:               GvNm1 (DYNAMICS)  max=  7.67749697778917E-08
DEBUG_STATS_RL:               GvNm1 (DYNAMICS) mean= -4.71533361261794E-10
DEBUG_STATS_RL:               GvNm1 (DYNAMICS) S.D.=  2.04113373444476E-08
DEBUG_STATS_RL:               GtNm1 (DYNAMICS)  min=  0.00000000000000E+00
DEBUG_STATS_RL:               GtNm1 (DYNAMICS)  max=  0.00000000000000E+00
DEBUG_STATS_RL:               GtNm1 (DYNAMICS) mean=  0.00000000000000E+00
DEBUG_STATS_RL:               GtNm1 (DYNAMICS) S.D.=  0.00000000000000E+00
DEBUG_STATS_RL:               GsNm1 (DYNAMICS)  min=  0.00000000000000E+00
DEBUG_STATS_RL:               GsNm1 (DYNAMICS)  max=  0.00000000000000E+00
DEBUG_STATS_RL:               GsNm1 (DYNAMICS) mean=  0.00000000000000E+00
DEBUG_STATS_RL:               GsNm1 (DYNAMICS) S.D.=  0.00000000000000E+00
DEBUG_STATS_RL:    cg2d_b (SOLVE_FOR_PRESSURE)  min= -7.51696131718243E+03
DEBUG_STATS_RL:    cg2d_b (SOLVE_FOR_PRESSURE)  max=  2.21291016221051E+03
DEBUG_STATS_RL:    cg2d_b (SOLVE_FOR_PRESSURE) mean=  4.58915868269590E-13
DEBUG_STATS_RL:    cg2d_b (SOLVE_FOR_PRESSURE) S.D.=  9.35355930257235E+02
 cg2d: Sum(rhs),rhsMax =   8.31626434383281E-15  1.20985040186718E+00
DEBUG_STATS_RL:    cg2d_x (SOLVE_FOR_PRESSURE)  min= -1.39137659519062E+00
DEBUG_STATS_RL:    cg2d_x (SOLVE_FOR_PRESSURE)  max=  3.06244143644349E+00
DEBUG_STATS_RL:    cg2d_x (SOLVE_FOR_PRESSURE) mean= -2.04738907199977E-02
DEBUG_STATS_RL:    cg2d_x (SOLVE_FOR_PRESSURE) S.D.=  7.54254787473770E-01
DEBUG_STATS_RL:          Uvel (THERMODYNAMICS)  min= -4.85747443135341E-02
DEBUG_STATS_RL:          Uvel (THERMODYNAMICS)  max=  6.48566534974095E-02
DEBUG_STATS_RL:          Uvel (THERMODYNAMICS) mean=  2.83347825458883E-03
DEBUG_STATS_RL:          Uvel (THERMODYNAMICS) S.D.=  1.04406948546643E-02
DEBUG_STATS_RL:          Vvel (THERMODYNAMICS)  min= -2.93630589507642E-02
DEBUG_STATS_RL:          Vvel (THERMODYNAMICS)  max=  5.51081422495762E-02
DEBUG_STATS_RL:          Vvel (THERMODYNAMICS) mean=  1.89398823344116E-03
DEBUG_STATS_RL:          Vvel (THERMODYNAMICS) S.D.=  1.13685531753216E-02
DEBUG_STATS_RL:          Wvel (THERMODYNAMICS)  min= -1.01835019199989E-04
DEBUG_STATS_RL:          Wvel (THERMODYNAMICS)  max=  2.18299385766776E-04
DEBUG_STATS_RL:          Wvel (THERMODYNAMICS) mean= -3.58449213337373E-07
DEBUG_STATS_RL:          Wvel (THERMODYNAMICS) S.D.=  2.04428902649917E-05
DEBUG_STATS_RL:         Theta (THERMODYNAMICS)  min= -1.93250363389783E+00
DEBUG_STATS_RL:         Theta (THERMODYNAMICS)  max=  1.32631363173882E+01
DEBUG_STATS_RL:         Theta (THERMODYNAMICS) mean=  2.41867029854828E+00
DEBUG_STATS_RL:         Theta (THERMODYNAMICS) S.D.=  2.57126546321788E+00
DEBUG_STATS_RL:          Salt (THERMODYNAMICS)  min=  2.76143299539290E+01
DEBUG_STATS_RL:          Salt (THERMODYNAMICS)  max=  3.54510577106203E+01
DEBUG_STATS_RL:          Salt (THERMODYNAMICS) mean=  3.39375783473297E+01
DEBUG_STATS_RL:          Salt (THERMODYNAMICS) S.D.=  1.15271478316349E+00
DEBUG_STATS_RL:         GtNm1 (THERMODYNAMICS)  min=  0.00000000000000E+00
DEBUG_STATS_RL:         GtNm1 (THERMODYNAMICS)  max=  0.00000000000000E+00
DEBUG_STATS_RL:         GtNm1 (THERMODYNAMICS) mean=  0.00000000000000E+00
DEBUG_STATS_RL:         GtNm1 (THERMODYNAMICS) S.D.=  0.00000000000000E+00
DEBUG_STATS_RL:         GsNm1 (THERMODYNAMICS)  min=  0.00000000000000E+00
DEBUG_STATS_RL:         GsNm1 (THERMODYNAMICS)  max=  0.00000000000000E+00
DEBUG_STATS_RL:         GsNm1 (THERMODYNAMICS) mean=  0.00000000000000E+00
DEBUG_STATS_RL:         GsNm1 (THERMODYNAMICS) S.D.=  0.00000000000000E+00
(PID.TID 0000.0001)  MDS_WRITE_FIELD: it,rec,kS,kL,kH=       1     4   1   1   1 file=m_sst_step.0000000001
(PID.TID 0000.0001)  MDS_READ_FIELD: opening global file: xx_atemp.effective.0000000001.data
(PID.TID 0000.0001) EXF_SET_FLD: processing field "climsss",  file: SSS_monthly.labsea1979
(PID.TID 0000.0001) EXF_SET_FLD:   myIter, count0, count1:         3      1      2
(PID.TID 0000.0001) EXF_SET_FLD:   first, changed, fac:   F   F    0.49590163934426235
(PID.TID 0000.0001) EXF_SET_FLD: processing field "uwind",  file: u10m.labsea1979
(PID.TID 0000.0001) EXF_SET_FLD:   myIter, count0, count1:         3      1      2
(PID.TID 0000.0001) EXF_SET_FLD:   first, changed, fac:   F   F    0.49590163934426235
(PID.TID 0000.0001) EXF_SET_FLD: processing field "vwind",  file: v10m.labsea1979
(PID.TID 0000.0001) EXF_SET_FLD:   myIter, count0, count1:         3      1      2
(PID.TID 0000.0001) EXF_SET_FLD:   first, changed, fac:   F   F    0.49590163934426235
(PID.TID 0000.0001) EXF_SET_FLD: processing field "atemp",  file: tair.labsea1979
(PID.TID 0000.0001) EXF_SET_FLD:   myIter, count0, count1:         3      1      2
(PID.TID 0000.0001) EXF_SET_FLD:   first, changed, fac:   F   F    0.49590163934426235
(PID.TID 0000.0001) EXF_SET_FLD: processing field "aqh",  file: qa.labsea1979
(PID.TID 0000.0001) EXF_SET_FLD:   myIter, count0, count1:         3      1      2
(PID.TID 0000.0001) EXF_SET_FLD:   first, changed, fac:   F   F    0.49590163934426235
(PID.TID 0000.0001) EXF_SET_FLD: processing field "precip",  file: prate.labsea1979
(PID.TID 0000.0001) EXF_SET_FLD:   myIter, count0, count1:         3      1      2
(PID.TID 0000.0001) EXF_SET_FLD:   first, changed, fac:   F   F    0.49590163934426235
(PID.TID 0000.0001) EXF_SET_FLD: processing field "swdown",  file: fsh.labsea1979
(PID.TID 0000.0001) EXF_SET_FLD:   myIter, count0, count1:         3      1      2
(PID.TID 0000.0001) EXF_SET_FLD:   first, changed, fac:   F   F    0.49590163934426235
(PID.TID 0000.0001) EXF_SET_FLD: processing field "lwdown",  file: flo.labsea1979
(PID.TID 0000.0001) EXF_SET_FLD:   myIter, count0, count1:         3      1      2
(PID.TID 0000.0001) EXF_SET_FLD:   first, changed, fac:   F   F    0.49590163934426235
DEBUG_STATS_RL: Uice pre  iter (SEAICE_LSR  1)  min= -4.89522325598180E-03
DEBUG_STATS_RL: Uice pre  iter (SEAICE_LSR  1)  max=  1.61355517756084E-01
DEBUG_STATS_RL: Uice pre  iter (SEAICE_LSR  1) mean=  5.67051326037790E-02
DEBUG_STATS_RL: Uice pre  iter (SEAICE_LSR  1) S.D.=  5.73816154993751E-02
DEBUG_STATS_RL: Vice pre  iter (SEAICE_LSR  1)  min= -1.51246540995864E-01
DEBUG_STATS_RL: Vice pre  iter (SEAICE_LSR  1)  max=  8.91076561218487E-02
DEBUG_STATS_RL: Vice pre  iter (SEAICE_LSR  1) mean= -1.97403473790082E-02
DEBUG_STATS_RL: Vice pre  iter (SEAICE_LSR  1) S.D.=  3.94189649084415E-02
DEBUG_STATS_RL: Uice pre  iter (SEAICE_LSR  2)  min= -5.42054480417875E-03
DEBUG_STATS_RL: Uice pre  iter (SEAICE_LSR  2)  max=  2.02641844081809E-01
DEBUG_STATS_RL: Uice pre  iter (SEAICE_LSR  2) mean=  6.47762112262718E-02
DEBUG_STATS_RL: Uice pre  iter (SEAICE_LSR  2) S.D.=  6.71608790532179E-02
DEBUG_STATS_RL: Vice pre  iter (SEAICE_LSR  2)  min= -1.45601126352235E-01
DEBUG_STATS_RL: Vice pre  iter (SEAICE_LSR  2)  max=  1.04145470460116E-01
DEBUG_STATS_RL: Vice pre  iter (SEAICE_LSR  2) mean= -2.31827417461230E-02
DEBUG_STATS_RL: Vice pre  iter (SEAICE_LSR  2) S.D.=  4.33109039427762E-02
DEBUG_STATS_RL:                EtaN (DYNAMICS)  min= -1.41751558253252E-01
DEBUG_STATS_RL:                EtaN (DYNAMICS)  max=  3.11997375243845E-01
DEBUG_STATS_RL:                EtaN (DYNAMICS) mean= -2.08585218631543E-03
DEBUG_STATS_RL:                EtaN (DYNAMICS) S.D.=  7.68424535916062E-02
DEBUG_STATS_RL:                Uvel (DYNAMICS)  min= -4.85747443135341E-02
DEBUG_STATS_RL:                Uvel (DYNAMICS)  max=  6.48566534974095E-02
DEBUG_STATS_RL:                Uvel (DYNAMICS) mean=  2.83347825458883E-03
DEBUG_STATS_RL:                Uvel (DYNAMICS) S.D.=  1.04406948546643E-02
DEBUG_STATS_RL:                Vvel (DYNAMICS)  min= -2.93630589507642E-02
DEBUG_STATS_RL:                Vvel (DYNAMICS)  max=  5.51081422495762E-02
DEBUG_STATS_RL:                Vvel (DYNAMICS) mean=  1.89398823344116E-03
DEBUG_STATS_RL:                Vvel (DYNAMICS) S.D.=  1.13685531753216E-02
DEBUG_STATS_RL:                Wvel (DYNAMICS)  min= -1.01835019199989E-04
DEBUG_STATS_RL:                Wvel (DYNAMICS)  max=  2.18299385766776E-04
DEBUG_STATS_RL:                Wvel (DYNAMICS) mean= -3.58449213337373E-07
DEBUG_STATS_RL:                Wvel (DYNAMICS) S.D.=  2.04428902649917E-05
DEBUG_STATS_RL:               Theta (DYNAMICS)  min= -1.93250363389783E+00
DEBUG_STATS_RL:               Theta (DYNAMICS)  max=  1.32631363173882E+01
DEBUG_STATS_RL:               Theta (DYNAMICS) mean=  2.41867029854828E+00
DEBUG_STATS_RL:               Theta (DYNAMICS) S.D.=  2.57126546321788E+00
DEBUG_STATS_RL:                Salt (DYNAMICS)  min=  2.76143299539290E+01
DEBUG_STATS_RL:                Salt (DYNAMICS)  max=  3.54510577106203E+01
DEBUG_STATS_RL:                Salt (DYNAMICS) mean=  3.39375783473297E+01
DEBUG_STATS_RL:                Salt (DYNAMICS) S.D.=  1.15271478316349E+00
DEBUG_STATS_RL:                  Gu (DYNAMICS)  min= -3.31660092548330E-02
DEBUG_STATS_RL:                  Gu (DYNAMICS)  max=  7.71641715782455E-02
DEBUG_STATS_RL:                  Gu (DYNAMICS) mean=  1.79729889201514E-03
DEBUG_STATS_RL:                  Gu (DYNAMICS) S.D.=  1.23549872720723E-02
DEBUG_STATS_RL:                  Gv (DYNAMICS)  min= -6.51102265935058E-02
DEBUG_STATS_RL:                  Gv (DYNAMICS)  max=  4.74792371894020E-02
DEBUG_STATS_RL:                  Gv (DYNAMICS) mean= -3.61268002208205E-03
DEBUG_STATS_RL:                  Gv (DYNAMICS) S.D.=  1.25565096774052E-02
DEBUG_STATS_RL:               GuNm1 (DYNAMICS)  min= -2.57489899416701E-07
DEBUG_STATS_RL:               GuNm1 (DYNAMICS)  max=  1.89368528479149E-07
DEBUG_STATS_RL:               GuNm1 (DYNAMICS) mean=  4.40117076607078E-12
DEBUG_STATS_RL:               GuNm1 (DYNAMICS) S.D.=  4.68821385830655E-08
DEBUG_STATS_RL:               GvNm1 (DYNAMICS)  min= -1.09603640235133E-07
DEBUG_STATS_RL:               GvNm1 (DYNAMICS)  max=  9.62789262154640E-08
DEBUG_STATS_RL:               GvNm1 (DYNAMICS) mean= -8.49526391149469E-10
DEBUG_STATS_RL:               GvNm1 (DYNAMICS) S.D.=  2.55629549792405E-08
DEBUG_STATS_RL:               GtNm1 (DYNAMICS)  min=  0.00000000000000E+00
DEBUG_STATS_RL:               GtNm1 (DYNAMICS)  max=  0.00000000000000E+00
DEBUG_STATS_RL:               GtNm1 (DYNAMICS) mean=  0.00000000000000E+00
DEBUG_STATS_RL:               GtNm1 (DYNAMICS) S.D.=  0.00000000000000E+00
DEBUG_STATS_RL:               GsNm1 (DYNAMICS)  min=  0.00000000000000E+00
DEBUG_STATS_RL:               GsNm1 (DYNAMICS)  max=  0.00000000000000E+00
DEBUG_STATS_RL:               GsNm1 (DYNAMICS) mean=  0.00000000000000E+00
DEBUG_STATS_RL:               GsNm1 (DYNAMICS) S.D.=  0.00000000000000E+00
DEBUG_STATS_RL:    cg2d_b (SOLVE_FOR_PRESSURE)  min= -7.48820843436665E+03
DEBUG_STATS_RL:    cg2d_b (SOLVE_FOR_PRESSURE)  max=  2.19603477106490E+03
DEBUG_STATS_RL:    cg2d_b (SOLVE_FOR_PRESSURE) mean=  3.82556208933238E-13
DEBUG_STATS_RL:    cg2d_b (SOLVE_FOR_PRESSURE) S.D.=  9.20730314173721E+02
 cg2d: Sum(rhs),rhsMax =   5.87030424270552E-15  1.20522264267545E+00
DEBUG_STATS_RL:    cg2d_x (SOLVE_FOR_PRESSURE)  min= -1.31033012419241E+00
DEBUG_STATS_RL:    cg2d_x (SOLVE_FOR_PRESSURE)  max=  3.14089981024871E+00
DEBUG_STATS_RL:    cg2d_x (SOLVE_FOR_PRESSURE) mean= -2.47876044022979E-02
DEBUG_STATS_RL:    cg2d_x (SOLVE_FOR_PRESSURE) S.D.=  7.62604990072706E-01
DEBUG_STATS_RL:          Uvel (THERMODYNAMICS)  min= -4.51228100181616E-02
DEBUG_STATS_RL:          Uvel (THERMODYNAMICS)  max=  8.23946614697994E-02
DEBUG_STATS_RL:          Uvel (THERMODYNAMICS) mean=  4.46006533350150E-03
DEBUG_STATS_RL:          Uvel (THERMODYNAMICS) S.D.=  1.25503402183551E-02
DEBUG_STATS_RL:          Vvel (THERMODYNAMICS)  min= -5.43131072024841E-02
DEBUG_STATS_RL:          Vvel (THERMODYNAMICS)  max=  6.64710959483309E-02
DEBUG_STATS_RL:          Vvel (THERMODYNAMICS) mean=  9.07394962378294E-04
DEBUG_STATS_RL:          Vvel (THERMODYNAMICS) S.D.=  1.42265213439986E-02
DEBUG_STATS_RL:          Wvel (THERMODYNAMICS)  min= -1.50094143875171E-04
DEBUG_STATS_RL:          Wvel (THERMODYNAMICS)  max=  2.67848367720691E-04
DEBUG_STATS_RL:          Wvel (THERMODYNAMICS) mean= -2.83768310637189E-07
DEBUG_STATS_RL:          Wvel (THERMODYNAMICS) S.D.=  2.30755404976193E-05
DEBUG_STATS_RL:         Theta (THERMODYNAMICS)  min= -1.95323356757650E+00
DEBUG_STATS_RL:         Theta (THERMODYNAMICS)  max=  1.32611729219857E+01
DEBUG_STATS_RL:         Theta (THERMODYNAMICS) mean=  2.41624287435038E+00
DEBUG_STATS_RL:         Theta (THERMODYNAMICS) S.D.=  2.57467251754838E+00
DEBUG_STATS_RL:          Salt (THERMODYNAMICS)  min=  2.76192995644599E+01
DEBUG_STATS_RL:          Salt (THERMODYNAMICS)  max=  3.54511687806856E+01
DEBUG_STATS_RL:          Salt (THERMODYNAMICS) mean=  3.39368869963855E+01
DEBUG_STATS_RL:          Salt (THERMODYNAMICS) S.D.=  1.15395653842393E+00
DEBUG_STATS_RL:         GtNm1 (THERMODYNAMICS)  min=  0.00000000000000E+00
DEBUG_STATS_RL:         GtNm1 (THERMODYNAMICS)  max=  0.00000000000000E+00
DEBUG_STATS_RL:         GtNm1 (THERMODYNAMICS) mean=  0.00000000000000E+00
DEBUG_STATS_RL:         GtNm1 (THERMODYNAMICS) S.D.=  0.00000000000000E+00
DEBUG_STATS_RL:         GsNm1 (THERMODYNAMICS)  min=  0.00000000000000E+00
DEBUG_STATS_RL:         GsNm1 (THERMODYNAMICS)  max=  0.00000000000000E+00
DEBUG_STATS_RL:         GsNm1 (THERMODYNAMICS) mean=  0.00000000000000E+00
DEBUG_STATS_RL:         GsNm1 (THERMODYNAMICS) S.D.=  0.00000000000000E+00
(PID.TID 0000.0001)  MDS_WRITE_FIELD: it,rec,kS,kL,kH=       1     5   1   1   1 file=m_sst_step.0000000001
(PID.TID 0000.0001)  MDS_READ_FIELD: opening global file: xx_atemp.effective.0000000001.data
(PID.TID 0000.0001) EXF_SET_FLD: processing field "climsss",  file: SSS_monthly.labsea1979
(PID.TID 0000.0001) EXF_SET_FLD:   myIter, count0, count1:         4      1      2
(PID.TID 0000.0001) EXF_SET_FLD:   first, changed, fac:   F   F    0.49453551912568305
(PID.TID 0000.0001) EXF_SET_FLD: processing field "uwind",  file: u10m.labsea1979
(PID.TID 0000.0001) EXF_SET_FLD:   myIter, count0, count1:         4      1      2
(PID.TID 0000.0001) EXF_SET_FLD:   first, changed, fac:   F   F    0.49453551912568305
(PID.TID 0000.0001) EXF_SET_FLD: processing field "vwind",  file: v10m.labsea1979
(PID.TID 0000.0001) EXF_SET_FLD:   myIter, count0, count1:         4      1      2
(PID.TID 0000.0001) EXF_SET_FLD:   first, changed, fac:   F   F    0.49453551912568305
(PID.TID 0000.0001) EXF_SET_FLD: processing field "atemp",  file: tair.labsea1979
(PID.TID 0000.0001) EXF_SET_FLD:   myIter, count0, count1:         4      1      2
(PID.TID 0000.0001) EXF_SET_FLD:   first, changed, fac:   F   F    0.49453551912568305
(PID.TID 0000.0001) EXF_SET_FLD: processing field "aqh",  file: qa.labsea1979
(PID.TID 0000.0001) EXF_SET_FLD:   myIter, count0, count1:         4      1      2
(PID.TID 0000.0001) EXF_SET_FLD:   first, changed, fac:   F   F    0.49453551912568305
(PID.TID 0000.0001) EXF_SET_FLD: processing field "precip",  file: prate.labsea1979
(PID.TID 0000.0001) EXF_SET_FLD:   myIter, count0, count1:         4      1      2
(PID.TID 0000.0001) EXF_SET_FLD:   first, changed, fac:   F   F    0.49453551912568305
(PID.TID 0000.0001) EXF_SET_FLD: processing field "swdown",  file: fsh.labsea1979
(PID.TID 0000.0001) EXF_SET_FLD:   myIter, count0, count1:         4      1      2
(PID.TID 0000.0001) EXF_SET_FLD:   first, changed, fac:   F   F    0.49453551912568305
(PID.TID 0000.0001) EXF_SET_FLD: processing field "lwdown",  file: flo.labsea1979
(PID.TID 0000.0001) EXF_SET_FLD:   myIter, count0, count1:         4      1      2
(PID.TID 0000.0001) EXF_SET_FLD:   first, changed, fac:   F   F    0.49453551912568305
DEBUG_STATS_RL: Uice pre  iter (SEAICE_LSR  1)  min= -6.64884179987775E-03
DEBUG_STATS_RL: Uice pre  iter (SEAICE_LSR  1)  max=  1.92542735136310E-01
DEBUG_STATS_RL: Uice pre  iter (SEAICE_LSR  1) mean=  6.47686246164686E-02
DEBUG_STATS_RL: Uice pre  iter (SEAICE_LSR  1) S.D.=  6.59732959909976E-02
DEBUG_STATS_RL: Vice pre  iter (SEAICE_LSR  1)  min= -1.58345599530571E-01
DEBUG_STATS_RL: Vice pre  iter (SEAICE_LSR  1)  max=  1.04255589228156E-01
DEBUG_STATS_RL: Vice pre  iter (SEAICE_LSR  1) mean= -2.61122078466736E-02
DEBUG_STATS_RL: Vice pre  iter (SEAICE_LSR  1) S.D.=  4.54292968531780E-02
DEBUG_STATS_RL: Uice pre  iter (SEAICE_LSR  2)  min= -7.39582706174155E-03
DEBUG_STATS_RL: Uice pre  iter (SEAICE_LSR  2)  max=  2.22032103672184E-01
DEBUG_STATS_RL: Uice pre  iter (SEAICE_LSR  2) mean=  6.99701895633879E-02
DEBUG_STATS_RL: Uice pre  iter (SEAICE_LSR  2) S.D.=  7.26089122440428E-02
DEBUG_STATS_RL: Vice pre  iter (SEAICE_LSR  2)  min= -1.71770480186527E-01
DEBUG_STATS_RL: Vice pre  iter (SEAICE_LSR  2)  max=  1.08496327276559E-01
DEBUG_STATS_RL: Vice pre  iter (SEAICE_LSR  2) mean= -3.10609864830938E-02
DEBUG_STATS_RL: Vice pre  iter (SEAICE_LSR  2) S.D.=  4.99863315311528E-02
DEBUG_STATS_RL:                EtaN (DYNAMICS)  min= -1.33494653835977E-01
DEBUG_STATS_RL:                EtaN (DYNAMICS)  max=  3.19990607833317E-01
DEBUG_STATS_RL:                EtaN (DYNAMICS) mean= -2.52532747894147E-03
DEBUG_STATS_RL:                EtaN (DYNAMICS) S.D.=  7.76931608941588E-02
DEBUG_STATS_RL:                Uvel (DYNAMICS)  min= -4.51228100181616E-02
DEBUG_STATS_RL:                Uvel (DYNAMICS)  max=  8.23946614697994E-02
DEBUG_STATS_RL:                Uvel (DYNAMICS) mean=  4.46006533350150E-03
DEBUG_STATS_RL:                Uvel (DYNAMICS) S.D.=  1.25503402183551E-02
DEBUG_STATS_RL:                Vvel (DYNAMICS)  min= -5.43131072024841E-02
DEBUG_STATS_RL:                Vvel (DYNAMICS)  max=  6.64710959483309E-02
DEBUG_STATS_RL:                Vvel (DYNAMICS) mean=  9.07394962378294E-04
DEBUG_STATS_RL:                Vvel (DYNAMICS) S.D.=  1.42265213439986E-02
DEBUG_STATS_RL:                Wvel (DYNAMICS)  min= -1.50094143875171E-04
DEBUG_STATS_RL:                Wvel (DYNAMICS)  max=  2.67848367720691E-04
DEBUG_STATS_RL:                Wvel (DYNAMICS) mean= -2.83768310637189E-07
DEBUG_STATS_RL:                Wvel (DYNAMICS) S.D.=  2.30755404976193E-05
DEBUG_STATS_RL:               Theta (DYNAMICS)  min= -1.95323356757650E+00
DEBUG_STATS_RL:               Theta (DYNAMICS)  max=  1.32611729219857E+01
DEBUG_STATS_RL:               Theta (DYNAMICS) mean=  2.41624287435038E+00
DEBUG_STATS_RL:               Theta (DYNAMICS) S.D.=  2.57467251754838E+00
DEBUG_STATS_RL:                Salt (DYNAMICS)  min=  2.76192995644599E+01
DEBUG_STATS_RL:                Salt (DYNAMICS)  max=  3.54511687806856E+01
DEBUG_STATS_RL:                Salt (DYNAMICS) mean=  3.39368869963855E+01
DEBUG_STATS_RL:                Salt (DYNAMICS) S.D.=  1.15395653842393E+00
DEBUG_STATS_RL:                  Gu (DYNAMICS)  min= -3.06969616935930E-02
DEBUG_STATS_RL:                  Gu (DYNAMICS)  max=  9.72073114926347E-02
DEBUG_STATS_RL:                  Gu (DYNAMICS) mean=  3.10151082315232E-03
DEBUG_STATS_RL:                  Gu (DYNAMICS) S.D.=  1.41052551008833E-02
DEBUG_STATS_RL:                  Gv (DYNAMICS)  min= -9.53132079804356E-02
DEBUG_STATS_RL:                  Gv (DYNAMICS)  max=  5.33682068181784E-02
DEBUG_STATS_RL:                  Gv (DYNAMICS) mean= -5.06243016756378E-03
DEBUG_STATS_RL:                  Gv (DYNAMICS) S.D.=  1.53588463679679E-02
DEBUG_STATS_RL:               GuNm1 (DYNAMICS)  min= -2.35357489189894E-07
DEBUG_STATS_RL:               GuNm1 (DYNAMICS)  max=  1.71456102315401E-07
DEBUG_STATS_RL:               GuNm1 (DYNAMICS) mean= -2.01481983919377E-09
DEBUG_STATS_RL:               GuNm1 (DYNAMICS) S.D.=  4.45062316312327E-08
DEBUG_STATS_RL:               GvNm1 (DYNAMICS)  min= -1.49109605789101E-07
DEBUG_STATS_RL:               GvNm1 (DYNAMICS)  max=  1.05797935490731E-07
DEBUG_STATS_RL:               GvNm1 (DYNAMICS) mean= -1.04937902583841E-09
DEBUG_STATS_RL:               GvNm1 (DYNAMICS) S.D.=  3.09410614928897E-08
DEBUG_STATS_RL:               GtNm1 (DYNAMICS)  min=  0.00000000000000E+00
DEBUG_STATS_RL:               GtNm1 (DYNAMICS)  max=  0.00000000000000E+00
DEBUG_STATS_RL:               GtNm1 (DYNAMICS) mean=  0.00000000000000E+00
DEBUG_STATS_RL:               GtNm1 (DYNAMICS) S.D.=  0.00000000000000E+00
DEBUG_STATS_RL:               GsNm1 (DYNAMICS)  min=  0.00000000000000E+00
DEBUG_STATS_RL:               GsNm1 (DYNAMICS)  max=  0.00000000000000E+00
DEBUG_STATS_RL:               GsNm1 (DYNAMICS) mean=  0.00000000000000E+00
DEBUG_STATS_RL:               GsNm1 (DYNAMICS) S.D.=  0.00000000000000E+00
DEBUG_STATS_RL:    cg2d_b (SOLVE_FOR_PRESSURE)  min= -7.47095948274182E+03
DEBUG_STATS_RL:    cg2d_b (SOLVE_FOR_PRESSURE)  max=  2.18029189648820E+03
DEBUG_STATS_RL:    cg2d_b (SOLVE_FOR_PRESSURE) mean=  4.32957373656488E-13
DEBUG_STATS_RL:    cg2d_b (SOLVE_FOR_PRESSURE) S.D.=  9.11464014140422E+02
 cg2d: Sum(rhs),rhsMax =   7.09501901674514E-15  1.20244643428824E+00
DEBUG_STATS_RL:    cg2d_x (SOLVE_FOR_PRESSURE)  min= -1.27317826454479E+00
DEBUG_STATS_RL:    cg2d_x (SOLVE_FOR_PRESSURE)  max=  3.19622316797603E+00
DEBUG_STATS_RL:    cg2d_x (SOLVE_FOR_PRESSURE) mean= -2.95294169356765E-02
DEBUG_STATS_RL:    cg2d_x (SOLVE_FOR_PRESSURE) S.D.=  7.40273720373347E-01
DEBUG_STATS_RL:          Uvel (THERMODYNAMICS)  min= -3.64296443204083E-02
DEBUG_STATS_RL:          Uvel (THERMODYNAMICS)  max=  8.91662112566489E-02
DEBUG_STATS_RL:          Uvel (THERMODYNAMICS) mean=  5.18186102503159E-03
DEBUG_STATS_RL:          Uvel (THERMODYNAMICS) S.D.=  1.36791834404214E-02
DEBUG_STATS_RL:          Vvel (THERMODYNAMICS)  min= -8.48427067731534E-02
DEBUG_STATS_RL:          Vvel (THERMODYNAMICS)  max=  7.15709637633454E-02
DEBUG_STATS_RL:          Vvel (THERMODYNAMICS) mean= -6.25663991279112E-04
DEBUG_STATS_RL:          Vvel (THERMODYNAMICS) S.D.=  1.65568599029881E-02
DEBUG_STATS_RL:          Wvel (THERMODYNAMICS)  min= -2.02998023749470E-04
DEBUG_STATS_RL:          Wvel (THERMODYNAMICS)  max=  3.07634744219606E-04
DEBUG_STATS_RL:          Wvel (THERMODYNAMICS) mean= -2.14485636604589E-07
DEBUG_STATS_RL:          Wvel (THERMODYNAMICS) S.D.=  2.56514188295220E-05
DEBUG_STATS_RL:         Theta (THERMODYNAMICS)  min= -1.95891909892382E+00
DEBUG_STATS_RL:         Theta (THERMODYNAMICS)  max=  1.32575107273067E+01
DEBUG_STATS_RL:         Theta (THERMODYNAMICS) mean=  2.41560973729717E+00
DEBUG_STATS_RL:         Theta (THERMODYNAMICS) S.D.=  2.57506629522921E+00
DEBUG_STATS_RL:          Salt (THERMODYNAMICS)  min=  2.76241835718781E+01
DEBUG_STATS_RL:          Salt (THERMODYNAMICS)  max=  3.54512322319690E+01
DEBUG_STATS_RL:          Salt (THERMODYNAMICS) mean=  3.39367610972820E+01
DEBUG_STATS_RL:          Salt (THERMODYNAMICS) S.D.=  1.15400523729943E+00
DEBUG_STATS_RL:         GtNm1 (THERMODYNAMICS)  min=  0.00000000000000E+00
DEBUG_STATS_RL:         GtNm1 (THERMODYNAMICS)  max=  0.00000000000000E+00
DEBUG_STATS_RL:         GtNm1 (THERMODYNAMICS) mean=  0.00000000000000E+00
DEBUG_STATS_RL:         GtNm1 (THERMODYNAMICS) S.D.=  0.00000000000000E+00
DEBUG_STATS_RL:         GsNm1 (THERMODYNAMICS)  min=  0.00000000000000E+00
DEBUG_STATS_RL:         GsNm1 (THERMODYNAMICS)  max=  0.00000000000000E+00
DEBUG_STATS_RL:         GsNm1 (THERMODYNAMICS) mean=  0.00000000000000E+00
DEBUG_STATS_RL:         GsNm1 (THERMODYNAMICS) S.D.=  0.00000000000000E+00
(PID.TID 0000.0001)  MDS_WRITE_FIELD: it,rec,kS,kL,kH=       1     6   1   1   1 file=m_sst_step.0000000001
(PID.TID 0000.0001)  MDS_READ_FIELD: opening global file: xx_atemp.effective.0000000001.data
(PID.TID 0000.0001) EXF_SET_FLD: processing field "climsss",  file: SSS_monthly.labsea1979
(PID.TID 0000.0001) EXF_SET_FLD:   myIter, count0, count1:         5      1      2
(PID.TID 0000.0001) EXF_SET_FLD:   first, changed, fac:   F   F    0.49316939890710387
(PID.TID 0000.0001) EXF_SET_FLD: processing field "uwind",  file: u10m.labsea1979
(PID.TID 0000.0001) EXF_SET_FLD:   myIter, count0, count1:         5      1      2
(PID.TID 0000.0001) EXF_SET_FLD:   first, changed, fac:   F   F    0.49316939890710387
(PID.TID 0000.0001) EXF_SET_FLD: processing field "vwind",  file: v10m.labsea1979
(PID.TID 0000.0001) EXF_SET_FLD:   myIter, count0, count1:         5      1      2
(PID.TID 0000.0001) EXF_SET_FLD:   first, changed, fac:   F   F    0.49316939890710387
(PID.TID 0000.0001) EXF_SET_FLD: processing field "atemp",  file: tair.labsea1979
(PID.TID 0000.0001) EXF_SET_FLD:   myIter, count0, count1:         5      1      2
(PID.TID 0000.0001) EXF_SET_FLD:   first, changed, fac:   F   F    0.49316939890710387
(PID.TID 0000.0001) EXF_SET_FLD: processing field "aqh",  file: qa.labsea1979
(PID.TID 0000.0001) EXF_SET_FLD:   myIter, count0, count1:         5      1      2
(PID.TID 0000.0001) EXF_SET_FLD:   first, changed, fac:   F   F    0.49316939890710387
(PID.TID 0000.0001) EXF_SET_FLD: processing field "precip",  file: prate.labsea1979
(PID.TID 0000.0001) EXF_SET_FLD:   myIter, count0, count1:         5      1      2
(PID.TID 0000.0001) EXF_SET_FLD:   first, changed, fac:   F   F    0.49316939890710387
(PID.TID 0000.0001) EXF_SET_FLD: processing field "swdown",  file: fsh.labsea1979
(PID.TID 0000.0001) EXF_SET_FLD:   myIter, count0, count1:         5      1      2
(PID.TID 0000.0001) EXF_SET_FLD:   first, changed, fac:   F   F    0.49316939890710387
(PID.TID 0000.0001) EXF_SET_FLD: processing field "lwdown",  file: flo.labsea1979
(PID.TID 0000.0001) EXF_SET_FLD:   myIter, count0, count1:         5      1      2
(PID.TID 0000.0001) EXF_SET_FLD:   first, changed, fac:   F   F    0.49316939890710387
DEBUG_STATS_RL: Uice pre  iter (SEAICE_LSR  1)  min= -9.02121933435207E-03
DEBUG_STATS_RL: Uice pre  iter (SEAICE_LSR  1)  max=  2.19445684647109E-01
DEBUG_STATS_RL: Uice pre  iter (SEAICE_LSR  1) mean=  6.96639305501368E-02
DEBUG_STATS_RL: Uice pre  iter (SEAICE_LSR  1) S.D.=  7.25590715281365E-02
DEBUG_STATS_RL: Vice pre  iter (SEAICE_LSR  1)  min= -1.73112057819569E-01
DEBUG_STATS_RL: Vice pre  iter (SEAICE_LSR  1)  max=  1.05174802576008E-01
DEBUG_STATS_RL: Vice pre  iter (SEAICE_LSR  1) mean= -3.44957645466125E-02
DEBUG_STATS_RL: Vice pre  iter (SEAICE_LSR  1) S.D.=  5.17027322851376E-02
DEBUG_STATS_RL: Uice pre  iter (SEAICE_LSR  2)  min= -9.93295031160362E-03
DEBUG_STATS_RL: Uice pre  iter (SEAICE_LSR  2)  max=  2.37649472779152E-01
DEBUG_STATS_RL: Uice pre  iter (SEAICE_LSR  2) mean=  7.08960993520971E-02
DEBUG_STATS_RL: Uice pre  iter (SEAICE_LSR  2) S.D.=  7.51814019585300E-02
DEBUG_STATS_RL: Vice pre  iter (SEAICE_LSR  2)  min= -1.73458139241630E-01
DEBUG_STATS_RL: Vice pre  iter (SEAICE_LSR  2)  max=  1.02503634704982E-01
DEBUG_STATS_RL: Vice pre  iter (SEAICE_LSR  2) mean= -3.89801386779676E-02
DEBUG_STATS_RL: Vice pre  iter (SEAICE_LSR  2) S.D.=  5.44920749403818E-02
DEBUG_STATS_RL:                EtaN (DYNAMICS)  min= -1.29709672821304E-01
DEBUG_STATS_RL:                EtaN (DYNAMICS)  max=  3.25626876398389E-01
DEBUG_STATS_RL:                EtaN (DYNAMICS) mean= -3.00841690122627E-03
DEBUG_STATS_RL:                EtaN (DYNAMICS) S.D.=  7.54180814594469E-02
DEBUG_STATS_RL:                Uvel (DYNAMICS)  min= -3.64296443204083E-02
DEBUG_STATS_RL:                Uvel (DYNAMICS)  max=  8.91662112566489E-02
DEBUG_STATS_RL:                Uvel (DYNAMICS) mean=  5.18186102503159E-03
DEBUG_STATS_RL:                Uvel (DYNAMICS) S.D.=  1.36791834404214E-02
DEBUG_STATS_RL:                Vvel (DYNAMICS)  min= -8.48427067731534E-02
DEBUG_STATS_RL:                Vvel (DYNAMICS)  max=  7.15709637633454E-02
DEBUG_STATS_RL:                Vvel (DYNAMICS) mean= -6.25663991279112E-04
DEBUG_STATS_RL:                Vvel (DYNAMICS) S.D.=  1.65568599029881E-02
DEBUG_STATS_RL:                Wvel (DYNAMICS)  min= -2.02998023749470E-04
DEBUG_STATS_RL:                Wvel (DYNAMICS)  max=  3.07634744219606E-04
DEBUG_STATS_RL:                Wvel (DYNAMICS) mean= -2.14485636604589E-07
DEBUG_STATS_RL:                Wvel (DYNAMICS) S.D.=  2.56514188295220E-05
DEBUG_STATS_RL:               Theta (DYNAMICS)  min= -1.95891909892382E+00
DEBUG_STATS_RL:               Theta (DYNAMICS)  max=  1.32575107273067E+01
DEBUG_STATS_RL:               Theta (DYNAMICS) mean=  2.41560973729717E+00
DEBUG_STATS_RL:               Theta (DYNAMICS) S.D.=  2.57506629522921E+00
DEBUG_STATS_RL:                Salt (DYNAMICS)  min=  2.76241835718781E+01
DEBUG_STATS_RL:                Salt (DYNAMICS)  max=  3.54512322319690E+01
DEBUG_STATS_RL:                Salt (DYNAMICS) mean=  3.39367610972820E+01
DEBUG_STATS_RL:                Salt (DYNAMICS) S.D.=  1.15400523729943E+00
DEBUG_STATS_RL:                  Gu (DYNAMICS)  min= -3.40661284894142E-02
DEBUG_STATS_RL:                  Gu (DYNAMICS)  max=  1.09592409505602E-01
DEBUG_STATS_RL:                  Gu (DYNAMICS) mean=  3.43340148228769E-03
DEBUG_STATS_RL:                  Gu (DYNAMICS) S.D.=  1.52106643071238E-02
DEBUG_STATS_RL:                  Gv (DYNAMICS)  min= -1.19743996000425E-01
DEBUG_STATS_RL:                  Gv (DYNAMICS)  max=  5.31755908727338E-02
DEBUG_STATS_RL:                  Gv (DYNAMICS) mean= -6.43607759847624E-03
DEBUG_STATS_RL:                  Gv (DYNAMICS) S.D.=  1.74595586593503E-02
DEBUG_STATS_RL:               GuNm1 (DYNAMICS)  min= -2.94347299884282E-07
DEBUG_STATS_RL:               GuNm1 (DYNAMICS)  max=  1.78770581560383E-07
DEBUG_STATS_RL:               GuNm1 (DYNAMICS) mean= -3.06311171943072E-09
DEBUG_STATS_RL:               GuNm1 (DYNAMICS) S.D.=  4.19614199163614E-08
DEBUG_STATS_RL:               GvNm1 (DYNAMICS)  min= -1.82273635415877E-07
DEBUG_STATS_RL:               GvNm1 (DYNAMICS)  max=  1.24273330976771E-07
DEBUG_STATS_RL:               GvNm1 (DYNAMICS) mean= -1.05360009952078E-09
DEBUG_STATS_RL:               GvNm1 (DYNAMICS) S.D.=  3.58773704866746E-08
DEBUG_STATS_RL:               GtNm1 (DYNAMICS)  min=  0.00000000000000E+00
DEBUG_STATS_RL:               GtNm1 (DYNAMICS)  max=  0.00000000000000E+00
DEBUG_STATS_RL:               GtNm1 (DYNAMICS) mean=  0.00000000000000E+00
DEBUG_STATS_RL:               GtNm1 (DYNAMICS) S.D.=  0.00000000000000E+00
DEBUG_STATS_RL:               GsNm1 (DYNAMICS)  min=  0.00000000000000E+00
DEBUG_STATS_RL:               GsNm1 (DYNAMICS)  max=  0.00000000000000E+00
DEBUG_STATS_RL:               GsNm1 (DYNAMICS) mean=  0.00000000000000E+00
DEBUG_STATS_RL:               GsNm1 (DYNAMICS) S.D.=  0.00000000000000E+00
DEBUG_STATS_RL:    cg2d_b (SOLVE_FOR_PRESSURE)  min= -7.45833771571453E+03
DEBUG_STATS_RL:    cg2d_b (SOLVE_FOR_PRESSURE)  max=  2.17494903027796E+03
DEBUG_STATS_RL:    cg2d_b (SOLVE_FOR_PRESSURE) mean=  5.79613394317372E-13
DEBUG_STATS_RL:    cg2d_b (SOLVE_FOR_PRESSURE) S.D.=  9.06377010650174E+02
 cg2d: Sum(rhs),rhsMax =   1.07344688693445E-14  1.20041496847833E+00
DEBUG_STATS_RL:    cg2d_x (SOLVE_FOR_PRESSURE)  min= -1.23196163368215E+00
DEBUG_STATS_RL:    cg2d_x (SOLVE_FOR_PRESSURE)  max=  3.23727429689742E+00
DEBUG_STATS_RL:    cg2d_x (SOLVE_FOR_PRESSURE) mean= -3.45194761148489E-02
DEBUG_STATS_RL:    cg2d_x (SOLVE_FOR_PRESSURE) S.D.=  7.10912240392830E-01
DEBUG_STATS_RL:          Uvel (THERMODYNAMICS)  min= -3.59096386964080E-02
DEBUG_STATS_RL:          Uvel (THERMODYNAMICS)  max=  1.01288605318195E-01
DEBUG_STATS_RL:          Uvel (THERMODYNAMICS) mean=  5.06442107689075E-03
DEBUG_STATS_RL:          Uvel (THERMODYNAMICS) S.D.=  1.40087544095983E-02
DEBUG_STATS_RL:          Vvel (THERMODYNAMICS)  min= -1.10756263988790E-01
DEBUG_STATS_RL:          Vvel (THERMODYNAMICS)  max=  7.07208418107751E-02
DEBUG_STATS_RL:          Vvel (THERMODYNAMICS) mean= -2.17557054830837E-03
DEBUG_STATS_RL:          Vvel (THERMODYNAMICS) S.D.=  1.80912833066800E-02
DEBUG_STATS_RL:          Wvel (THERMODYNAMICS)  min= -2.43811460414305E-04
DEBUG_STATS_RL:          Wvel (THERMODYNAMICS)  max=  3.28816353261777E-04
DEBUG_STATS_RL:          Wvel (THERMODYNAMICS) mean= -1.37923543342634E-07
DEBUG_STATS_RL:          Wvel (THERMODYNAMICS) S.D.=  2.75149300864463E-05
DEBUG_STATS_RL:         Theta (THERMODYNAMICS)  min= -1.96015217723763E+00
DEBUG_STATS_RL:         Theta (THERMODYNAMICS)  max=  1.32512671183369E+01
DEBUG_STATS_RL:         Theta (THERMODYNAMICS) mean=  2.41531606071968E+00
DEBUG_STATS_RL:         Theta (THERMODYNAMICS) S.D.=  2.57483151675911E+00
DEBUG_STATS_RL:          Salt (THERMODYNAMICS)  min=  2.76290307531745E+01
DEBUG_STATS_RL:          Salt (THERMODYNAMICS)  max=  3.54512307060718E+01
DEBUG_STATS_RL:          Salt (THERMODYNAMICS) mean=  3.39367446276230E+01
DEBUG_STATS_RL:          Salt (THERMODYNAMICS) S.D.=  1.15382313156973E+00
DEBUG_STATS_RL:         GtNm1 (THERMODYNAMICS)  min=  0.00000000000000E+00
DEBUG_STATS_RL:         GtNm1 (THERMODYNAMICS)  max=  0.00000000000000E+00
DEBUG_STATS_RL:         GtNm1 (THERMODYNAMICS) mean=  0.00000000000000E+00
DEBUG_STATS_RL:         GtNm1 (THERMODYNAMICS) S.D.=  0.00000000000000E+00
DEBUG_STATS_RL:         GsNm1 (THERMODYNAMICS)  min=  0.00000000000000E+00
DEBUG_STATS_RL:         GsNm1 (THERMODYNAMICS)  max=  0.00000000000000E+00
DEBUG_STATS_RL:         GsNm1 (THERMODYNAMICS) mean=  0.00000000000000E+00
DEBUG_STATS_RL:         GsNm1 (THERMODYNAMICS) S.D.=  0.00000000000000E+00
(PID.TID 0000.0001)  MDS_WRITE_FIELD: it,rec,kS,kL,kH=       1     7   1   1   1 file=m_sst_step.0000000001
(PID.TID 0000.0001)  MDS_READ_FIELD: opening global file: xx_atemp.effective.0000000001.data
(PID.TID 0000.0001) EXF_SET_FLD: processing field "climsss",  file: SSS_monthly.labsea1979
(PID.TID 0000.0001) EXF_SET_FLD:   myIter, count0, count1:         6      1      2
(PID.TID 0000.0001) EXF_SET_FLD:   first, changed, fac:   F   F    0.49180327868852458
(PID.TID 0000.0001) EXF_SET_FLD: processing field "uwind",  file: u10m.labsea1979
(PID.TID 0000.0001) EXF_SET_FLD:   myIter, count0, count1:         6      1      2
(PID.TID 0000.0001) EXF_SET_FLD:   first, changed, fac:   F   F    0.49180327868852458
(PID.TID 0000.0001) EXF_SET_FLD: processing field "vwind",  file: v10m.labsea1979
(PID.TID 0000.0001) EXF_SET_FLD:   myIter, count0, count1:         6      1      2
(PID.TID 0000.0001) EXF_SET_FLD:   first, changed, fac:   F   F    0.49180327868852458
(PID.TID 0000.0001) EXF_SET_FLD: processing field "atemp",  file: tair.labsea1979
(PID.TID 0000.0001) EXF_SET_FLD:   myIter, count0, count1:         6      1      2
(PID.TID 0000.0001) EXF_SET_FLD:   first, changed, fac:   F   F    0.49180327868852458
(PID.TID 0000.0001) EXF_SET_FLD: processing field "aqh",  file: qa.labsea1979
(PID.TID 0000.0001) EXF_SET_FLD:   myIter, count0, count1:         6      1      2
(PID.TID 0000.0001) EXF_SET_FLD:   first, changed, fac:   F   F    0.49180327868852458
(PID.TID 0000.0001) EXF_SET_FLD: processing field "precip",  file: prate.labsea1979
(PID.TID 0000.0001) EXF_SET_FLD:   myIter, count0, count1:         6      1      2
(PID.TID 0000.0001) EXF_SET_FLD:   first, changed, fac:   F   F    0.49180327868852458
(PID.TID 0000.0001) EXF_SET_FLD: processing field "swdown",  file: fsh.labsea1979
(PID.TID 0000.0001) EXF_SET_FLD:   myIter, count0, count1:         6      1      2
(PID.TID 0000.0001) EXF_SET_FLD:   first, changed, fac:   F   F    0.49180327868852458
(PID.TID 0000.0001) EXF_SET_FLD: processing field "lwdown",  file: flo.labsea1979
(PID.TID 0000.0001) EXF_SET_FLD:   myIter, count0, count1:         6      1      2
(PID.TID 0000.0001) EXF_SET_FLD:   first, changed, fac:   F   F    0.49180327868852458
DEBUG_STATS_RL: Uice pre  iter (SEAICE_LSR  1)  min= -1.19106759197655E-02
DEBUG_STATS_RL: Uice pre  iter (SEAICE_LSR  1)  max=  2.40859973799500E-01
DEBUG_STATS_RL: Uice pre  iter (SEAICE_LSR  1) mean=  7.02597534857966E-02
DEBUG_STATS_RL: Uice pre  iter (SEAICE_LSR  1) S.D.=  7.57773428261779E-02
DEBUG_STATS_RL: Vice pre  iter (SEAICE_LSR  1)  min= -1.74132342678210E-01
DEBUG_STATS_RL: Vice pre  iter (SEAICE_LSR  1)  max=  9.66358613081404E-02
DEBUG_STATS_RL: Vice pre  iter (SEAICE_LSR  1) mean= -4.28491368253027E-02
DEBUG_STATS_RL: Vice pre  iter (SEAICE_LSR  1) S.D.=  5.63763392299422E-02
DEBUG_STATS_RL: Uice pre  iter (SEAICE_LSR  2)  min= -1.30564509126991E-02
DEBUG_STATS_RL: Uice pre  iter (SEAICE_LSR  2)  max=  2.47901039964918E-01
DEBUG_STATS_RL: Uice pre  iter (SEAICE_LSR  2) mean=  6.80717062406567E-02
DEBUG_STATS_RL: Uice pre  iter (SEAICE_LSR  2) S.D.=  7.48548542544969E-02
DEBUG_STATS_RL: Vice pre  iter (SEAICE_LSR  2)  min= -1.68314830999125E-01
DEBUG_STATS_RL: Vice pre  iter (SEAICE_LSR  2)  max=  8.87290074915905E-02
DEBUG_STATS_RL: Vice pre  iter (SEAICE_LSR  2) mean= -4.61137817419012E-02
DEBUG_STATS_RL: Vice pre  iter (SEAICE_LSR  2) S.D.=  5.74118961803281E-02
DEBUG_STATS_RL:                EtaN (DYNAMICS)  min= -1.25510578434548E-01
DEBUG_STATS_RL:                EtaN (DYNAMICS)  max=  3.29809109672096E-01
DEBUG_STATS_RL:                EtaN (DYNAMICS) mean= -3.51679735470566E-03
DEBUG_STATS_RL:                EtaN (DYNAMICS) S.D.=  7.24267737471811E-02
DEBUG_STATS_RL:                Uvel (DYNAMICS)  min= -3.59096386964080E-02
DEBUG_STATS_RL:                Uvel (DYNAMICS)  max=  1.01288605318195E-01
DEBUG_STATS_RL:                Uvel (DYNAMICS) mean=  5.06442107689075E-03
DEBUG_STATS_RL:                Uvel (DYNAMICS) S.D.=  1.40087544095983E-02
DEBUG_STATS_RL:                Vvel (DYNAMICS)  min= -1.10756263988790E-01
DEBUG_STATS_RL:                Vvel (DYNAMICS)  max=  7.07208418107751E-02
DEBUG_STATS_RL:                Vvel (DYNAMICS) mean= -2.17557054830837E-03
DEBUG_STATS_RL:                Vvel (DYNAMICS) S.D.=  1.80912833066800E-02
DEBUG_STATS_RL:                Wvel (DYNAMICS)  min= -2.43811460414305E-04
DEBUG_STATS_RL:                Wvel (DYNAMICS)  max=  3.28816353261777E-04
DEBUG_STATS_RL:                Wvel (DYNAMICS) mean= -1.37923543342634E-07
DEBUG_STATS_RL:                Wvel (DYNAMICS) S.D.=  2.75149300864463E-05
DEBUG_STATS_RL:               Theta (DYNAMICS)  min= -1.96015217723763E+00
DEBUG_STATS_RL:               Theta (DYNAMICS)  max=  1.32512671183369E+01
DEBUG_STATS_RL:               Theta (DYNAMICS) mean=  2.41531606071968E+00
DEBUG_STATS_RL:               Theta (DYNAMICS) S.D.=  2.57483151675911E+00
DEBUG_STATS_RL:                Salt (DYNAMICS)  min=  2.76290307531745E+01
DEBUG_STATS_RL:                Salt (DYNAMICS)  max=  3.54512307060718E+01
DEBUG_STATS_RL:                Salt (DYNAMICS) mean=  3.39367446276230E+01
DEBUG_STATS_RL:                Salt (DYNAMICS) S.D.=  1.15382313156973E+00
DEBUG_STATS_RL:                  Gu (DYNAMICS)  min= -4.45840116907268E-02
DEBUG_STATS_RL:                  Gu (DYNAMICS)  max=  1.13252404039500E-01
DEBUG_STATS_RL:                  Gu (DYNAMICS) mean=  3.02808241158274E-03
DEBUG_STATS_RL:                  Gu (DYNAMICS) S.D.=  1.59063121239448E-02
DEBUG_STATS_RL:                  Gv (DYNAMICS)  min= -1.34630447324797E-01
DEBUG_STATS_RL:                  Gv (DYNAMICS)  max=  4.81174890382836E-02
DEBUG_STATS_RL:                  Gv (DYNAMICS) mean= -7.41639241989228E-03
DEBUG_STATS_RL:                  Gv (DYNAMICS) S.D.=  1.85638365104841E-02
DEBUG_STATS_RL:               GuNm1 (DYNAMICS)  min= -3.33271036892891E-07
DEBUG_STATS_RL:               GuNm1 (DYNAMICS)  max=  1.87479663955273E-07
DEBUG_STATS_RL:               GuNm1 (DYNAMICS) mean= -3.31200046767734E-09
DEBUG_STATS_RL:               GuNm1 (DYNAMICS) S.D.=  4.08419141882803E-08
DEBUG_STATS_RL:               GvNm1 (DYNAMICS)  min= -2.04912919624489E-07
DEBUG_STATS_RL:               GvNm1 (DYNAMICS)  max=  1.56710147054387E-07
DEBUG_STATS_RL:               GvNm1 (DYNAMICS) mean= -8.96938696725646E-10
DEBUG_STATS_RL:               GvNm1 (DYNAMICS) S.D.=  3.95873164869357E-08
DEBUG_STATS_RL:               GtNm1 (DYNAMICS)  min=  0.00000000000000E+00
DEBUG_STATS_RL:               GtNm1 (DYNAMICS)  max=  0.00000000000000E+00
DEBUG_STATS_RL:               GtNm1 (DYNAMICS) mean=  0.00000000000000E+00
DEBUG_STATS_RL:               GtNm1 (DYNAMICS) S.D.=  0.00000000000000E+00
DEBUG_STATS_RL:               GsNm1 (DYNAMICS)  min=  0.00000000000000E+00
DEBUG_STATS_RL:               GsNm1 (DYNAMICS)  max=  0.00000000000000E+00
DEBUG_STATS_RL:               GsNm1 (DYNAMICS) mean=  0.00000000000000E+00
DEBUG_STATS_RL:               GsNm1 (DYNAMICS) S.D.=  0.00000000000000E+00
DEBUG_STATS_RL:    cg2d_b (SOLVE_FOR_PRESSURE)  min= -7.43169656860989E+03
DEBUG_STATS_RL:    cg2d_b (SOLVE_FOR_PRESSURE)  max=  2.17598296942665E+03
DEBUG_STATS_RL:    cg2d_b (SOLVE_FOR_PRESSURE) mean=  6.73973469626314E-13
DEBUG_STATS_RL:    cg2d_b (SOLVE_FOR_PRESSURE) S.D.=  9.02750100849548E+02
 cg2d: Sum(rhs),rhsMax =   1.39957490041809E-14  1.19612709187890E+00
DEBUG_STATS_RL:    cg2d_x (SOLVE_FOR_PRESSURE)  min= -1.18794061890983E+00
DEBUG_STATS_RL:    cg2d_x (SOLVE_FOR_PRESSURE)  max=  3.24511049575596E+00
DEBUG_STATS_RL:    cg2d_x (SOLVE_FOR_PRESSURE) mean= -3.88654400026278E-02
DEBUG_STATS_RL:    cg2d_x (SOLVE_FOR_PRESSURE) S.D.=  6.81167535252460E-01
DEBUG_STATS_RL:          Uvel (THERMODYNAMICS)  min= -3.57601727952402E-02
DEBUG_STATS_RL:          Uvel (THERMODYNAMICS)  max=  1.04775938290593E-01
DEBUG_STATS_RL:          Uvel (THERMODYNAMICS) mean=  4.39725630122789E-03
DEBUG_STATS_RL:          Uvel (THERMODYNAMICS) S.D.=  1.39028540310914E-02
DEBUG_STATS_RL:          Vvel (THERMODYNAMICS)  min= -1.27584762387731E-01
DEBUG_STATS_RL:          Vvel (THERMODYNAMICS)  max=  6.50083276838882E-02
DEBUG_STATS_RL:          Vvel (THERMODYNAMICS) mean= -3.36887217583563E-03
DEBUG_STATS_RL:          Vvel (THERMODYNAMICS) S.D.=  1.85890275650357E-02
DEBUG_STATS_RL:          Wvel (THERMODYNAMICS)  min= -2.67954696014337E-04
DEBUG_STATS_RL:          Wvel (THERMODYNAMICS)  max=  3.29804232734353E-04
DEBUG_STATS_RL:          Wvel (THERMODYNAMICS) mean= -4.85616750767439E-08
DEBUG_STATS_RL:          Wvel (THERMODYNAMICS) S.D.=  2.84164537902829E-05
DEBUG_STATS_RL:         Theta (THERMODYNAMICS)  min= -1.95963016104407E+00
DEBUG_STATS_RL:         Theta (THERMODYNAMICS)  max=  1.32396343409662E+01
DEBUG_STATS_RL:         Theta (THERMODYNAMICS) mean=  2.41506584132490E+00
DEBUG_STATS_RL:         Theta (THERMODYNAMICS) S.D.=  2.57443936967394E+00
DEBUG_STATS_RL:          Salt (THERMODYNAMICS)  min=  2.76338867569799E+01
DEBUG_STATS_RL:          Salt (THERMODYNAMICS)  max=  3.54511617149686E+01
DEBUG_STATS_RL:          Salt (THERMODYNAMICS) mean=  3.39367496241619E+01
DEBUG_STATS_RL:          Salt (THERMODYNAMICS) S.D.=  1.15359229307806E+00
DEBUG_STATS_RL:         GtNm1 (THERMODYNAMICS)  min=  0.00000000000000E+00
DEBUG_STATS_RL:         GtNm1 (THERMODYNAMICS)  max=  0.00000000000000E+00
DEBUG_STATS_RL:         GtNm1 (THERMODYNAMICS) mean=  0.00000000000000E+00
DEBUG_STATS_RL:         GtNm1 (THERMODYNAMICS) S.D.=  0.00000000000000E+00
DEBUG_STATS_RL:         GsNm1 (THERMODYNAMICS)  min=  0.00000000000000E+00
DEBUG_STATS_RL:         GsNm1 (THERMODYNAMICS)  max=  0.00000000000000E+00
DEBUG_STATS_RL:         GsNm1 (THERMODYNAMICS) mean=  0.00000000000000E+00
DEBUG_STATS_RL:         GsNm1 (THERMODYNAMICS) S.D.=  0.00000000000000E+00
(PID.TID 0000.0001)  MDS_WRITE_FIELD: it,rec,kS,kL,kH=       1     8   1   1   1 file=m_sst_step.0000000001
(PID.TID 0000.0001)  MDS_READ_FIELD: opening global file: xx_atemp.effective.0000000001.data
(PID.TID 0000.0001) EXF_SET_FLD: processing field "climsss",  file: SSS_monthly.labsea1979
(PID.TID 0000.0001) EXF_SET_FLD:   myIter, count0, count1:         7      1      2
(PID.TID 0000.0001) EXF_SET_FLD:   first, changed, fac:   F   F    0.49043715846994540
(PID.TID 0000.0001) EXF_SET_FLD: processing field "uwind",  file: u10m.labsea1979
(PID.TID 0000.0001) EXF_SET_FLD:   myIter, count0, count1:         7      1      2
(PID.TID 0000.0001) EXF_SET_FLD:   first, changed, fac:   F   F    0.49043715846994540
(PID.TID 0000.0001) EXF_SET_FLD: processing field "vwind",  file: v10m.labsea1979
(PID.TID 0000.0001) EXF_SET_FLD:   myIter, count0, count1:         7      1      2
(PID.TID 0000.0001) EXF_SET_FLD:   first, changed, fac:   F   F    0.49043715846994540
(PID.TID 0000.0001) EXF_SET_FLD: processing field "atemp",  file: tair.labsea1979
(PID.TID 0000.0001) EXF_SET_FLD:   myIter, count0, count1:         7      1      2
(PID.TID 0000.0001) EXF_SET_FLD:   first, changed, fac:   F   F    0.49043715846994540
(PID.TID 0000.0001) EXF_SET_FLD: processing field "aqh",  file: qa.labsea1979
(PID.TID 0000.0001) EXF_SET_FLD:   myIter, count0, count1:         7      1      2
(PID.TID 0000.0001) EXF_SET_FLD:   first, changed, fac:   F   F    0.49043715846994540
(PID.TID 0000.0001) EXF_SET_FLD: processing field "precip",  file: prate.labsea1979
(PID.TID 0000.0001) EXF_SET_FLD:   myIter, count0, count1:         7      1      2
(PID.TID 0000.0001) EXF_SET_FLD:   first, changed, fac:   F   F    0.49043715846994540
(PID.TID 0000.0001) EXF_SET_FLD: processing field "swdown",  file: fsh.labsea1979
(PID.TID 0000.0001) EXF_SET_FLD:   myIter, count0, count1:         7      1      2
(PID.TID 0000.0001) EXF_SET_FLD:   first, changed, fac:   F   F    0.49043715846994540
(PID.TID 0000.0001) EXF_SET_FLD: processing field "lwdown",  file: flo.labsea1979
(PID.TID 0000.0001) EXF_SET_FLD:   myIter, count0, count1:         7      1      2
(PID.TID 0000.0001) EXF_SET_FLD:   first, changed, fac:   F   F    0.49043715846994540
DEBUG_STATS_RL: Uice pre  iter (SEAICE_LSR  1)  min= -1.54549194527301E-02
DEBUG_STATS_RL: Uice pre  iter (SEAICE_LSR  1)  max=  2.53524286292195E-01
DEBUG_STATS_RL: Uice pre  iter (SEAICE_LSR  1) mean=  6.68799365315672E-02
DEBUG_STATS_RL: Uice pre  iter (SEAICE_LSR  1) S.D.=  7.54478852965444E-02
DEBUG_STATS_RL: Vice pre  iter (SEAICE_LSR  1)  min= -1.68373183021000E-01
DEBUG_STATS_RL: Vice pre  iter (SEAICE_LSR  1)  max=  8.10859368452308E-02
DEBUG_STATS_RL: Vice pre  iter (SEAICE_LSR  1) mean= -4.94905385210029E-02
DEBUG_STATS_RL: Vice pre  iter (SEAICE_LSR  1) S.D.=  5.89447951209570E-02
DEBUG_STATS_RL: Uice pre  iter (SEAICE_LSR  2)  min= -1.68104910561278E-02
DEBUG_STATS_RL: Uice pre  iter (SEAICE_LSR  2)  max=  2.51381266335640E-01
DEBUG_STATS_RL: Uice pre  iter (SEAICE_LSR  2) mean=  6.26056742412074E-02
DEBUG_STATS_RL: Uice pre  iter (SEAICE_LSR  2) S.D.=  7.23215228189796E-02
DEBUG_STATS_RL: Vice pre  iter (SEAICE_LSR  2)  min= -1.70146515866900E-01
DEBUG_STATS_RL: Vice pre  iter (SEAICE_LSR  2)  max=  7.01571636850260E-02
DEBUG_STATS_RL: Vice pre  iter (SEAICE_LSR  2) mean= -5.12009841751843E-02
DEBUG_STATS_RL: Vice pre  iter (SEAICE_LSR  2) S.D.=  5.84735965017232E-02
DEBUG_STATS_RL:                EtaN (DYNAMICS)  min= -1.21025777222975E-01
DEBUG_STATS_RL:                EtaN (DYNAMICS)  max=  3.30607450971511E-01
DEBUG_STATS_RL:                EtaN (DYNAMICS) mean= -3.95955825447530E-03
DEBUG_STATS_RL:                EtaN (DYNAMICS) S.D.=  6.93964235759873E-02
DEBUG_STATS_RL:                Uvel (DYNAMICS)  min= -3.57601727952402E-02
DEBUG_STATS_RL:                Uvel (DYNAMICS)  max=  1.04775938290593E-01
DEBUG_STATS_RL:                Uvel (DYNAMICS) mean=  4.39725630122789E-03
DEBUG_STATS_RL:                Uvel (DYNAMICS) S.D.=  1.39028540310914E-02
DEBUG_STATS_RL:                Vvel (DYNAMICS)  min= -1.27584762387731E-01
DEBUG_STATS_RL:                Vvel (DYNAMICS)  max=  6.50083276838882E-02
DEBUG_STATS_RL:                Vvel (DYNAMICS) mean= -3.36887217583563E-03
DEBUG_STATS_RL:                Vvel (DYNAMICS) S.D.=  1.85890275650357E-02
DEBUG_STATS_RL:                Wvel (DYNAMICS)  min= -2.67954696014337E-04
DEBUG_STATS_RL:                Wvel (DYNAMICS)  max=  3.29804232734353E-04
DEBUG_STATS_RL:                Wvel (DYNAMICS) mean= -4.85616750767439E-08
DEBUG_STATS_RL:                Wvel (DYNAMICS) S.D.=  2.84164537902829E-05
DEBUG_STATS_RL:               Theta (DYNAMICS)  min= -1.95963016104407E+00
DEBUG_STATS_RL:               Theta (DYNAMICS)  max=  1.32396343409662E+01
DEBUG_STATS_RL:               Theta (DYNAMICS) mean=  2.41506584132490E+00
DEBUG_STATS_RL:               Theta (DYNAMICS) S.D.=  2.57443936967394E+00
DEBUG_STATS_RL:                Salt (DYNAMICS)  min=  2.76338867569799E+01
DEBUG_STATS_RL:                Salt (DYNAMICS)  max=  3.54511617149686E+01
DEBUG_STATS_RL:                Salt (DYNAMICS) mean=  3.39367496241619E+01
DEBUG_STATS_RL:                Salt (DYNAMICS) S.D.=  1.15359229307806E+00
DEBUG_STATS_RL:                  Gu (DYNAMICS)  min= -5.18639383679460E-02
DEBUG_STATS_RL:                  Gu (DYNAMICS)  max=  1.08500044377569E-01
DEBUG_STATS_RL:                  Gu (DYNAMICS) mean=  2.22152146942592E-03
DEBUG_STATS_RL:                  Gu (DYNAMICS) S.D.=  1.62488741545953E-02
DEBUG_STATS_RL:                  Gv (DYNAMICS)  min= -1.40216393355384E-01
DEBUG_STATS_RL:                  Gv (DYNAMICS)  max=  4.07135165171662E-02
DEBUG_STATS_RL:                  Gv (DYNAMICS) mean= -7.84361289827153E-03
DEBUG_STATS_RL:                  Gv (DYNAMICS) S.D.=  1.86090017356213E-02
DEBUG_STATS_RL:               GuNm1 (DYNAMICS)  min= -3.48473911940018E-07
DEBUG_STATS_RL:               GuNm1 (DYNAMICS)  max=  1.90416017948050E-07
DEBUG_STATS_RL:               GuNm1 (DYNAMICS) mean= -3.12306477011806E-09
DEBUG_STATS_RL:               GuNm1 (DYNAMICS) S.D.=  4.09417632401350E-08
DEBUG_STATS_RL:               GvNm1 (DYNAMICS)  min= -2.15359173477263E-07
DEBUG_STATS_RL:               GvNm1 (DYNAMICS)  max=  1.82438063099982E-07
DEBUG_STATS_RL:               GvNm1 (DYNAMICS) mean= -6.53519601912129E-10
DEBUG_STATS_RL:               GvNm1 (DYNAMICS) S.D.=  4.16452354554872E-08
DEBUG_STATS_RL:               GtNm1 (DYNAMICS)  min=  0.00000000000000E+00
DEBUG_STATS_RL:               GtNm1 (DYNAMICS)  max=  0.00000000000000E+00
DEBUG_STATS_RL:               GtNm1 (DYNAMICS) mean=  0.00000000000000E+00
DEBUG_STATS_RL:               GtNm1 (DYNAMICS) S.D.=  0.00000000000000E+00
DEBUG_STATS_RL:               GsNm1 (DYNAMICS)  min=  0.00000000000000E+00
DEBUG_STATS_RL:               GsNm1 (DYNAMICS)  max=  0.00000000000000E+00
DEBUG_STATS_RL:               GsNm1 (DYNAMICS) mean=  0.00000000000000E+00
DEBUG_STATS_RL:               GsNm1 (DYNAMICS) S.D.=  0.00000000000000E+00
DEBUG_STATS_RL:    cg2d_b (SOLVE_FOR_PRESSURE)  min= -7.37985604508119E+03
DEBUG_STATS_RL:    cg2d_b (SOLVE_FOR_PRESSURE)  max=  2.18366607280458E+03
DEBUG_STATS_RL:    cg2d_b (SOLVE_FOR_PRESSURE) mean=  6.65446956797193E-13
DEBUG_STATS_RL:    cg2d_b (SOLVE_FOR_PRESSURE) S.D.=  8.98963545839495E+02
 cg2d: Sum(rhs),rhsMax =   1.26391952459670E-14  1.18778339080373E+00
DEBUG_STATS_RL:    cg2d_x (SOLVE_FOR_PRESSURE)  min= -1.13929441834718E+00
DEBUG_STATS_RL:    cg2d_x (SOLVE_FOR_PRESSURE)  max=  3.20616731162135E+00
DEBUG_STATS_RL:    cg2d_x (SOLVE_FOR_PRESSURE) mean= -4.15672442272067E-02
DEBUG_STATS_RL:    cg2d_x (SOLVE_FOR_PRESSURE) S.D.=  6.51074617232408E-01
DEBUG_STATS_RL:          Uvel (THERMODYNAMICS)  min= -4.34802359646156E-02
DEBUG_STATS_RL:          Uvel (THERMODYNAMICS)  max=  9.99752242998816E-02
DEBUG_STATS_RL:          Uvel (THERMODYNAMICS) mean=  3.48264152587735E-03
DEBUG_STATS_RL:          Uvel (THERMODYNAMICS) S.D.=  1.35343125506856E-02
DEBUG_STATS_RL:          Vvel (THERMODYNAMICS)  min= -1.33439207289194E-01
DEBUG_STATS_RL:          Vvel (THERMODYNAMICS)  max=  5.60260700766979E-02
DEBUG_STATS_RL:          Vvel (THERMODYNAMICS) mean= -4.02696574873607E-03
DEBUG_STATS_RL:          Vvel (THERMODYNAMICS) S.D.=  1.80273334212709E-02
DEBUG_STATS_RL:          Wvel (THERMODYNAMICS)  min= -2.73348162229355E-04
DEBUG_STATS_RL:          Wvel (THERMODYNAMICS)  max=  3.13596923283702E-04
DEBUG_STATS_RL:          Wvel (THERMODYNAMICS) mean=  4.73709411311751E-08
DEBUG_STATS_RL:          Wvel (THERMODYNAMICS) S.D.=  2.82661454219223E-05
DEBUG_STATS_RL:         Theta (THERMODYNAMICS)  min= -1.95943609422382E+00
DEBUG_STATS_RL:         Theta (THERMODYNAMICS)  max=  1.32225113409295E+01
DEBUG_STATS_RL:         Theta (THERMODYNAMICS) mean=  2.41480286619417E+00
DEBUG_STATS_RL:         Theta (THERMODYNAMICS) S.D.=  2.57398860030337E+00
DEBUG_STATS_RL:          Salt (THERMODYNAMICS)  min=  2.76387468555707E+01
DEBUG_STATS_RL:          Salt (THERMODYNAMICS)  max=  3.54510358217953E+01
DEBUG_STATS_RL:          Salt (THERMODYNAMICS) mean=  3.39367601804939E+01
DEBUG_STATS_RL:          Salt (THERMODYNAMICS) S.D.=  1.15334890349897E+00
DEBUG_STATS_RL:         GtNm1 (THERMODYNAMICS)  min=  0.00000000000000E+00
DEBUG_STATS_RL:         GtNm1 (THERMODYNAMICS)  max=  0.00000000000000E+00
DEBUG_STATS_RL:         GtNm1 (THERMODYNAMICS) mean=  0.00000000000000E+00
DEBUG_STATS_RL:         GtNm1 (THERMODYNAMICS) S.D.=  0.00000000000000E+00
DEBUG_STATS_RL:         GsNm1 (THERMODYNAMICS)  min=  0.00000000000000E+00
DEBUG_STATS_RL:         GsNm1 (THERMODYNAMICS)  max=  0.00000000000000E+00
DEBUG_STATS_RL:         GsNm1 (THERMODYNAMICS) mean=  0.00000000000000E+00
DEBUG_STATS_RL:         GsNm1 (THERMODYNAMICS) S.D.=  0.00000000000000E+00
(PID.TID 0000.0001)  MDS_WRITE_FIELD: it,rec,kS,kL,kH=       1     9   1   1   1 file=m_sst_step.0000000001
(PID.TID 0000.0001)  MDS_READ_FIELD: opening global file: xx_atemp.effective.0000000001.data
(PID.TID 0000.0001) EXF_SET_FLD: processing field "climsss",  file: SSS_monthly.labsea1979
(PID.TID 0000.0001) EXF_SET_FLD:   myIter, count0, count1:         8      1      2
(PID.TID 0000.0001) EXF_SET_FLD:   first, changed, fac:   F   F    0.48907103825136611
(PID.TID 0000.0001) EXF_SET_FLD: processing field "uwind",  file: u10m.labsea1979
(PID.TID 0000.0001) EXF_SET_FLD:   myIter, count0, count1:         8      1      2
(PID.TID 0000.0001) EXF_SET_FLD:   first, changed, fac:   F   F    0.48907103825136611
(PID.TID 0000.0001) EXF_SET_FLD: processing field "vwind",  file: v10m.labsea1979
(PID.TID 0000.0001) EXF_SET_FLD:   myIter, count0, count1:         8      1      2
(PID.TID 0000.0001) EXF_SET_FLD:   first, changed, fac:   F   F    0.48907103825136611
(PID.TID 0000.0001) EXF_SET_FLD: processing field "atemp",  file: tair.labsea1979
(PID.TID 0000.0001) EXF_SET_FLD:   myIter, count0, count1:         8      1      2
(PID.TID 0000.0001) EXF_SET_FLD:   first, changed, fac:   F   F    0.48907103825136611
(PID.TID 0000.0001) EXF_SET_FLD: processing field "aqh",  file: qa.labsea1979
(PID.TID 0000.0001) EXF_SET_FLD:   myIter, count0, count1:         8      1      2
(PID.TID 0000.0001) EXF_SET_FLD:   first, changed, fac:   F   F    0.48907103825136611
(PID.TID 0000.0001) EXF_SET_FLD: processing field "precip",  file: prate.labsea1979
(PID.TID 0000.0001) EXF_SET_FLD:   myIter, count0, count1:         8      1      2
(PID.TID 0000.0001) EXF_SET_FLD:   first, changed, fac:   F   F    0.48907103825136611
(PID.TID 0000.0001) EXF_SET_FLD: processing field "swdown",  file: fsh.labsea1979
(PID.TID 0000.0001) EXF_SET_FLD:   myIter, count0, count1:         8      1      2
(PID.TID 0000.0001) EXF_SET_FLD:   first, changed, fac:   F   F    0.48907103825136611
(PID.TID 0000.0001) EXF_SET_FLD: processing field "lwdown",  file: flo.labsea1979
(PID.TID 0000.0001) EXF_SET_FLD:   myIter, count0, count1:         8      1      2
(PID.TID 0000.0001) EXF_SET_FLD:   first, changed, fac:   F   F    0.48907103825136611
DEBUG_STATS_RL: Uice pre  iter (SEAICE_LSR  1)  min= -1.95687208101789E-02
DEBUG_STATS_RL: Uice pre  iter (SEAICE_LSR  1)  max=  2.56695252608154E-01
DEBUG_STATS_RL: Uice pre  iter (SEAICE_LSR  1) mean=  6.10102626003309E-02
DEBUG_STATS_RL: Uice pre  iter (SEAICE_LSR  1) S.D.=  7.26515133446572E-02
DEBUG_STATS_RL: Vice pre  iter (SEAICE_LSR  1)  min= -1.74351841639701E-01
DEBUG_STATS_RL: Vice pre  iter (SEAICE_LSR  1)  max=  6.17815719868612E-02
DEBUG_STATS_RL: Vice pre  iter (SEAICE_LSR  1) mean= -5.34332922110723E-02
DEBUG_STATS_RL: Vice pre  iter (SEAICE_LSR  1) S.D.=  5.91879685815535E-02
DEBUG_STATS_RL: Uice pre  iter (SEAICE_LSR  2)  min= -2.10631196464874E-02
DEBUG_STATS_RL: Uice pre  iter (SEAICE_LSR  2)  max=  2.47741110498679E-01
DEBUG_STATS_RL: Uice pre  iter (SEAICE_LSR  2) mean=  5.58563099519738E-02
DEBUG_STATS_RL: Uice pre  iter (SEAICE_LSR  2) S.D.=  6.83562873810818E-02
DEBUG_STATS_RL: Vice pre  iter (SEAICE_LSR  2)  min= -1.71270231908967E-01
DEBUG_STATS_RL: Vice pre  iter (SEAICE_LSR  2)  max=  5.00408736690815E-02
DEBUG_STATS_RL: Vice pre  iter (SEAICE_LSR  2) mean= -5.35471708944113E-02
DEBUG_STATS_RL: Vice pre  iter (SEAICE_LSR  2) S.D.=  5.75117440528329E-02
DEBUG_STATS_RL:                EtaN (DYNAMICS)  min= -1.16069768363338E-01
DEBUG_STATS_RL:                EtaN (DYNAMICS)  max=  3.26639972250433E-01
DEBUG_STATS_RL:                EtaN (DYNAMICS) mean= -4.23481440026149E-03
DEBUG_STATS_RL:                EtaN (DYNAMICS) S.D.=  6.63305979494282E-02
DEBUG_STATS_RL:                Uvel (DYNAMICS)  min= -4.34802359646156E-02
DEBUG_STATS_RL:                Uvel (DYNAMICS)  max=  9.99752242998816E-02
DEBUG_STATS_RL:                Uvel (DYNAMICS) mean=  3.48264152587735E-03
DEBUG_STATS_RL:                Uvel (DYNAMICS) S.D.=  1.35343125506856E-02
DEBUG_STATS_RL:                Vvel (DYNAMICS)  min= -1.33439207289194E-01
DEBUG_STATS_RL:                Vvel (DYNAMICS)  max=  5.60260700766979E-02
DEBUG_STATS_RL:                Vvel (DYNAMICS) mean= -4.02696574873607E-03
DEBUG_STATS_RL:                Vvel (DYNAMICS) S.D.=  1.80273334212709E-02
DEBUG_STATS_RL:                Wvel (DYNAMICS)  min= -2.73348162229355E-04
DEBUG_STATS_RL:                Wvel (DYNAMICS)  max=  3.13596923283702E-04
DEBUG_STATS_RL:                Wvel (DYNAMICS) mean=  4.73709411311751E-08
DEBUG_STATS_RL:                Wvel (DYNAMICS) S.D.=  2.82661454219223E-05
DEBUG_STATS_RL:               Theta (DYNAMICS)  min= -1.95943609422382E+00
DEBUG_STATS_RL:               Theta (DYNAMICS)  max=  1.32225113409295E+01
DEBUG_STATS_RL:               Theta (DYNAMICS) mean=  2.41480286619417E+00
DEBUG_STATS_RL:               Theta (DYNAMICS) S.D.=  2.57398860030337E+00
DEBUG_STATS_RL:                Salt (DYNAMICS)  min=  2.76387468555707E+01
DEBUG_STATS_RL:                Salt (DYNAMICS)  max=  3.54510358217953E+01
DEBUG_STATS_RL:                Salt (DYNAMICS) mean=  3.39367601804939E+01
DEBUG_STATS_RL:                Salt (DYNAMICS) S.D.=  1.15334890349897E+00
DEBUG_STATS_RL:                  Gu (DYNAMICS)  min= -5.98368153083473E-02
DEBUG_STATS_RL:                  Gu (DYNAMICS)  max=  9.68873121299261E-02
DEBUG_STATS_RL:                  Gu (DYNAMICS) mean=  1.30194972944979E-03
DEBUG_STATS_RL:                  Gu (DYNAMICS) S.D.=  1.61566615236014E-02
DEBUG_STATS_RL:                  Gv (DYNAMICS)  min= -1.36271217267969E-01
DEBUG_STATS_RL:                  Gv (DYNAMICS)  max=  3.83573237348469E-02
DEBUG_STATS_RL:                  Gv (DYNAMICS) mean= -7.71950831959122E-03
DEBUG_STATS_RL:                  Gv (DYNAMICS) S.D.=  1.77533563667658E-02
DEBUG_STATS_RL:               GuNm1 (DYNAMICS)  min= -3.40955168137040E-07
DEBUG_STATS_RL:               GuNm1 (DYNAMICS)  max=  1.82641400821313E-07
DEBUG_STATS_RL:               GuNm1 (DYNAMICS) mean= -2.79196714440406E-09
DEBUG_STATS_RL:               GuNm1 (DYNAMICS) S.D.=  4.07453533305591E-08
DEBUG_STATS_RL:               GvNm1 (DYNAMICS)  min= -2.14559263714317E-07
DEBUG_STATS_RL:               GvNm1 (DYNAMICS)  max=  1.94148824775155E-07
DEBUG_STATS_RL:               GvNm1 (DYNAMICS) mean= -4.04169206793635E-10
DEBUG_STATS_RL:               GvNm1 (DYNAMICS) S.D.=  4.19222729578388E-08
DEBUG_STATS_RL:               GtNm1 (DYNAMICS)  min=  0.00000000000000E+00
DEBUG_STATS_RL:               GtNm1 (DYNAMICS)  max=  0.00000000000000E+00
DEBUG_STATS_RL:               GtNm1 (DYNAMICS) mean=  0.00000000000000E+00
DEBUG_STATS_RL:               GtNm1 (DYNAMICS) S.D.=  0.00000000000000E+00
DEBUG_STATS_RL:               GsNm1 (DYNAMICS)  min=  0.00000000000000E+00
DEBUG_STATS_RL:               GsNm1 (DYNAMICS)  max=  0.00000000000000E+00
DEBUG_STATS_RL:               GsNm1 (DYNAMICS) mean=  0.00000000000000E+00
DEBUG_STATS_RL:               GsNm1 (DYNAMICS) S.D.=  0.00000000000000E+00
DEBUG_STATS_RL:    cg2d_b (SOLVE_FOR_PRESSURE)  min= -7.29975929937788E+03
DEBUG_STATS_RL:    cg2d_b (SOLVE_FOR_PRESSURE)  max=  2.19478299507125E+03
DEBUG_STATS_RL:    cg2d_b (SOLVE_FOR_PRESSURE) mean= -4.06430444854777E-13
DEBUG_STATS_RL:    cg2d_b (SOLVE_FOR_PRESSURE) S.D.=  8.94146290227618E+02
 cg2d: Sum(rhs),rhsMax =  -8.36136715420821E-15  1.17489186776823E+00
DEBUG_STATS_RL:    cg2d_x (SOLVE_FOR_PRESSURE)  min= -1.08771127617391E+00
DEBUG_STATS_RL:    cg2d_x (SOLVE_FOR_PRESSURE)  max=  3.12128519797260E+00
DEBUG_STATS_RL:    cg2d_x (SOLVE_FOR_PRESSURE) mean= -4.19588396853156E-02
DEBUG_STATS_RL:    cg2d_x (SOLVE_FOR_PRESSURE) S.D.=  6.20262122263191E-01
DEBUG_STATS_RL:          Uvel (THERMODYNAMICS)  min= -5.12375198251694E-02
DEBUG_STATS_RL:          Uvel (THERMODYNAMICS)  max=  8.84896388076347E-02
DEBUG_STATS_RL:          Uvel (THERMODYNAMICS) mean=  2.55769138536375E-03
DEBUG_STATS_RL:          Uvel (THERMODYNAMICS) S.D.=  1.29064693911211E-02
DEBUG_STATS_RL:          Vvel (THERMODYNAMICS)  min= -1.29344604199455E-01
DEBUG_STATS_RL:          Vvel (THERMODYNAMICS)  max=  4.58633296186264E-02
DEBUG_STATS_RL:          Vvel (THERMODYNAMICS) mean= -4.14107843006196E-03
DEBUG_STATS_RL:          Vvel (THERMODYNAMICS) S.D.=  1.66082836245535E-02
DEBUG_STATS_RL:          Wvel (THERMODYNAMICS)  min= -2.60848991809585E-04
DEBUG_STATS_RL:          Wvel (THERMODYNAMICS)  max=  2.85731299794386E-04
DEBUG_STATS_RL:          Wvel (THERMODYNAMICS) mean=  1.36793666177987E-07
DEBUG_STATS_RL:          Wvel (THERMODYNAMICS) S.D.=  2.70580054557634E-05
DEBUG_STATS_RL:         Theta (THERMODYNAMICS)  min= -1.95932886747259E+00
DEBUG_STATS_RL:         Theta (THERMODYNAMICS)  max=  1.32010303660582E+01
DEBUG_STATS_RL:         Theta (THERMODYNAMICS) mean=  2.41452315045422E+00
DEBUG_STATS_RL:         Theta (THERMODYNAMICS) S.D.=  2.57350774067654E+00
DEBUG_STATS_RL:          Salt (THERMODYNAMICS)  min=  2.76435505129419E+01
DEBUG_STATS_RL:          Salt (THERMODYNAMICS)  max=  3.54508660670958E+01
DEBUG_STATS_RL:          Salt (THERMODYNAMICS) mean=  3.39367749828865E+01
DEBUG_STATS_RL:          Salt (THERMODYNAMICS) S.D.=  1.15309738582404E+00
DEBUG_STATS_RL:         GtNm1 (THERMODYNAMICS)  min=  0.00000000000000E+00
DEBUG_STATS_RL:         GtNm1 (THERMODYNAMICS)  max=  0.00000000000000E+00
DEBUG_STATS_RL:         GtNm1 (THERMODYNAMICS) mean=  0.00000000000000E+00
DEBUG_STATS_RL:         GtNm1 (THERMODYNAMICS) S.D.=  0.00000000000000E+00
DEBUG_STATS_RL:         GsNm1 (THERMODYNAMICS)  min=  0.00000000000000E+00
DEBUG_STATS_RL:         GsNm1 (THERMODYNAMICS)  max=  0.00000000000000E+00
DEBUG_STATS_RL:         GsNm1 (THERMODYNAMICS) mean=  0.00000000000000E+00
DEBUG_STATS_RL:         GsNm1 (THERMODYNAMICS) S.D.=  0.00000000000000E+00
(PID.TID 0000.0001) Did not write pickup because writePickupAtEnd = FALSE
(PID.TID 0000.0001)  MDS_WRITE_FIELD: it,rec,kS,kL,kH=       1    10   1   1   1 file=m_sst_step.0000000001
(PID.TID 0000.0001) gencost # 03
(PID.TID 0000.0001)  MDS_READ_FIELD: opening global file: sigma_sst.bin
(PID.TID 0000.0001)  MDS_READ_FIELD: opening global file: m_sst_step.0000000001.data
(PID.TID 0000.0001)  MDS_READ_FIELD: opening global file: labsea_SST_fields_t10
(PID.TID 0000.0001)  MDS_WRITE_FIELD: it,rec,kS,kL,kH=       1     1   1   1   1 file=misfit_sst
(PID.TID 0000.0001)  MDS_READ_FIELD: opening global file: sigma_sst.bin
(PID.TID 0000.0001)  MDS_READ_FIELD: opening global file: m_sst_step.0000000001.data
(PID.TID 0000.0001)  MDS_READ_FIELD: opening global file: labsea_SST_fields_t10
(PID.TID 0000.0001)  MDS_WRITE_FIELD: it,rec,kS,kL,kH=       1     2   1   1   1 file=misfit_sst
(PID.TID 0000.0001)  MDS_READ_FIELD: opening global file: sigma_sst.bin
(PID.TID 0000.0001)  MDS_READ_FIELD: opening global file: m_sst_step.0000000001.data
(PID.TID 0000.0001)  MDS_READ_FIELD: opening global file: labsea_SST_fields_t10
(PID.TID 0000.0001)  MDS_WRITE_FIELD: it,rec,kS,kL,kH=       1     3   1   1   1 file=misfit_sst
(PID.TID 0000.0001)  MDS_READ_FIELD: opening global file: sigma_sst.bin
(PID.TID 0000.0001)  MDS_READ_FIELD: opening global file: m_sst_step.0000000001.data
(PID.TID 0000.0001)  MDS_READ_FIELD: opening global file: labsea_SST_fields_t10
(PID.TID 0000.0001)  MDS_WRITE_FIELD: it,rec,kS,kL,kH=       1     4   1   1   1 file=misfit_sst
(PID.TID 0000.0001)  MDS_READ_FIELD: opening global file: sigma_sst.bin
(PID.TID 0000.0001)  MDS_READ_FIELD: opening global file: m_sst_step.0000000001.data
(PID.TID 0000.0001)  MDS_READ_FIELD: opening global file: labsea_SST_fields_t10
(PID.TID 0000.0001)  MDS_WRITE_FIELD: it,rec,kS,kL,kH=       1     5   1   1   1 file=misfit_sst
(PID.TID 0000.0001)  MDS_READ_FIELD: opening global file: sigma_sst.bin
(PID.TID 0000.0001)  MDS_READ_FIELD: opening global file: m_sst_step.0000000001.data
(PID.TID 0000.0001)  MDS_READ_FIELD: opening global file: labsea_SST_fields_t10
(PID.TID 0000.0001)  MDS_WRITE_FIELD: it,rec,kS,kL,kH=       1     6   1   1   1 file=misfit_sst
(PID.TID 0000.0001)  MDS_READ_FIELD: opening global file: sigma_sst.bin
(PID.TID 0000.0001)  MDS_READ_FIELD: opening global file: m_sst_step.0000000001.data
(PID.TID 0000.0001)  MDS_READ_FIELD: opening global file: labsea_SST_fields_t10
(PID.TID 0000.0001)  MDS_WRITE_FIELD: it,rec,kS,kL,kH=       1     7   1   1   1 file=misfit_sst
(PID.TID 0000.0001)  MDS_READ_FIELD: opening global file: sigma_sst.bin
(PID.TID 0000.0001)  MDS_READ_FIELD: opening global file: m_sst_step.0000000001.data
(PID.TID 0000.0001)  MDS_READ_FIELD: opening global file: labsea_SST_fields_t10
(PID.TID 0000.0001)  MDS_WRITE_FIELD: it,rec,kS,kL,kH=       1     8   1   1   1 file=misfit_sst
(PID.TID 0000.0001)  MDS_READ_FIELD: opening global file: sigma_sst.bin
(PID.TID 0000.0001)  MDS_READ_FIELD: opening global file: m_sst_step.0000000001.data
(PID.TID 0000.0001)  MDS_READ_FIELD: opening global file: labsea_SST_fields_t10
(PID.TID 0000.0001)  MDS_WRITE_FIELD: it,rec,kS,kL,kH=       1     9   1   1   1 file=misfit_sst
(PID.TID 0000.0001)  MDS_READ_FIELD: opening global file: sigma_sst.bin
(PID.TID 0000.0001)  MDS_READ_FIELD: opening global file: m_sst_step.0000000001.data
(PID.TID 0000.0001)  MDS_READ_FIELD: opening global file: labsea_SST_fields_t10
(PID.TID 0000.0001)  MDS_WRITE_FIELD: it,rec,kS,kL,kH=       1    10   1   1   1 file=misfit_sst
(PID.TID 0000.0001)  MDS_READ_FIELD: opening global file: xx_atemp.0000000001.data
(PID.TID 0000.0001)  MDS_READ_FIELD: opening global file: xx_atemp.0000000001.data
(PID.TID 0000.0001)  MDS_READ_FIELD: opening global file: xx_atemp.0000000001.data
(PID.TID 0000.0001)  MDS_READ_FIELD: opening global file: xx_atemp.0000000001.data
(PID.TID 0000.0001)  MDS_READ_FIELD: opening global file: xx_atemp.0000000001.data
(PID.TID 0000.0001)  MDS_READ_FIELD: opening global file: xx_atemp.0000000001.data
(PID.TID 0000.0001)  MDS_READ_FIELD: opening global file: xx_atemp.0000000001.data
(PID.TID 0000.0001)  MDS_READ_FIELD: opening global file: xx_atemp.0000000001.data
(PID.TID 0000.0001)  MDS_READ_FIELD: opening global file: xx_atemp.0000000001.data
(PID.TID 0000.0001)  MDS_READ_FIELD: opening global file: xx_atemp.0000000001.data
(PID.TID 0000.0001)  MDS_READ_FIELD: opening global file: xx_atemp.0000000001.data
 --> f_ice     = 0.000000000000000D+00
 --> f_smrarea = 0.000000000000000D+00
 --> f_smrarea = 0.000000000000000D+00
 --> f_smrarea = 0.000000000000000D+00
(PID.TID 0000.0001)  --> f_gencost = 0.527453128215446D+04 3
(PID.TID 0000.0001)  --> f_gentim2d = 0.243375020010000D+03 1
(PID.TID 0000.0001)  --> fc               = 0.527453128215446D+04
(PID.TID 0000.0001)  cost_Final: final cost function =  0.527453128215446D+04
(PID.TID 0000.0001) 
(PID.TID 0000.0001)              cost function evaluation finished.
(PID.TID 0000.0001) 
(PID.TID 0000.0001)   early fc =  0.000000000000000D+00
(PID.TID 0000.0001)   local fc =  0.527453128215446D+04
(PID.TID 0000.0001)  global fc =  0.527453128215446D+04
(PID.TID 0000.0001) grdchk perturb(+)fc: fcpertplus  =  5.27453128215446E+03
(PID.TID 0000.0001)  MDS_READ_FIELD: opening global file: xx_atemp.0000000001.data
(PID.TID 0000.0001)  MDS_WRITE_FIELD: it,rec,kS,kL,kH=       1     1   1   1   1 file=xx_atemp.0000000001
(PID.TID 0000.0001)  MDS_READ_FIELD: opening global file: xx_atemp.0000000001.data
(PID.TID 0000.0001)  MDS_WRITE_FIELD: it,rec,kS,kL,kH=       1     1   1   1   1 file=xx_atemp.0000000001
(PID.TID 0000.0001)  MDS_READ_FIELD: opening global file: LevCli_temp.labsea1979
(PID.TID 0000.0001)  MDS_READ_FIELD: opening global file: LevCli_salt.labsea1979
(PID.TID 0000.0001) Start initial hydrostatic pressure computation
(PID.TID 0000.0001) Pressure is predetermined for buoyancyRelation OCEANIC
(PID.TID 0000.0001) 
(PID.TID 0000.0001) CTRL_INIT_REC: Getting record indices for xx_atemp
(PID.TID 0000.0001) CTRL_INIT_REC: Record indices for xx_atemp:
(PID.TID 0000.0001) CTRL_INIT_REC: startrec =          1, endrec =         11
(PID.TID 0000.0001)  MDS_READ_FIELD: opening global file: xx_atemp.0000000001.data
(PID.TID 0000.0001)  MDS_WRITE_FIELD: it,rec,kS,kL,kH=       1     1   1   1   1 file=xx_atemp.effective.0000000001
(PID.TID 0000.0001)  MDS_READ_FIELD: opening global file: xx_atemp.0000000001.data
(PID.TID 0000.0001)  MDS_WRITE_FIELD: it,rec,kS,kL,kH=       1     2   1   1   1 file=xx_atemp.effective.0000000001
(PID.TID 0000.0001)  MDS_READ_FIELD: opening global file: xx_atemp.0000000001.data
(PID.TID 0000.0001)  MDS_WRITE_FIELD: it,rec,kS,kL,kH=       1     3   1   1   1 file=xx_atemp.effective.0000000001
(PID.TID 0000.0001)  MDS_READ_FIELD: opening global file: xx_atemp.0000000001.data
(PID.TID 0000.0001)  MDS_WRITE_FIELD: it,rec,kS,kL,kH=       1     4   1   1   1 file=xx_atemp.effective.0000000001
(PID.TID 0000.0001)  MDS_READ_FIELD: opening global file: xx_atemp.0000000001.data
(PID.TID 0000.0001)  MDS_WRITE_FIELD: it,rec,kS,kL,kH=       1     5   1   1   1 file=xx_atemp.effective.0000000001
(PID.TID 0000.0001)  MDS_READ_FIELD: opening global file: xx_atemp.0000000001.data
(PID.TID 0000.0001)  MDS_WRITE_FIELD: it,rec,kS,kL,kH=       1     6   1   1   1 file=xx_atemp.effective.0000000001
(PID.TID 0000.0001)  MDS_READ_FIELD: opening global file: xx_atemp.0000000001.data
(PID.TID 0000.0001)  MDS_WRITE_FIELD: it,rec,kS,kL,kH=       1     7   1   1   1 file=xx_atemp.effective.0000000001
(PID.TID 0000.0001)  MDS_READ_FIELD: opening global file: xx_atemp.0000000001.data
(PID.TID 0000.0001)  MDS_WRITE_FIELD: it,rec,kS,kL,kH=       1     8   1   1   1 file=xx_atemp.effective.0000000001
(PID.TID 0000.0001)  MDS_READ_FIELD: opening global file: xx_atemp.0000000001.data
(PID.TID 0000.0001)  MDS_WRITE_FIELD: it,rec,kS,kL,kH=       1     9   1   1   1 file=xx_atemp.effective.0000000001
(PID.TID 0000.0001)  MDS_READ_FIELD: opening global file: xx_atemp.0000000001.data
(PID.TID 0000.0001)  MDS_WRITE_FIELD: it,rec,kS,kL,kH=       1    10   1   1   1 file=xx_atemp.effective.0000000001
(PID.TID 0000.0001)  MDS_READ_FIELD: opening global file: xx_atemp.0000000001.data
(PID.TID 0000.0001)  MDS_WRITE_FIELD: it,rec,kS,kL,kH=       1    11   1   1   1 file=xx_atemp.effective.0000000001
(PID.TID 0000.0001)  MDS_READ_FIELD: opening global file: xx_atemp.effective.0000000001.data
(PID.TID 0000.0001)  MDS_READ_FIELD: opening global file: ones_64b.bin
(PID.TID 0000.0001)  MDS_WRITE_FIELD: it,rec,kS,kL,kH=       1     1   1   1   1 file=xx_atemp.effective.0000000001
(PID.TID 0000.0001)  MDS_READ_FIELD: opening global file: xx_atemp.effective.0000000001.data
(PID.TID 0000.0001)  MDS_READ_FIELD: opening global file: ones_64b.bin
(PID.TID 0000.0001)  MDS_WRITE_FIELD: it,rec,kS,kL,kH=       1     2   1   1   1 file=xx_atemp.effective.0000000001
(PID.TID 0000.0001)  MDS_READ_FIELD: opening global file: xx_atemp.effective.0000000001.data
(PID.TID 0000.0001)  MDS_READ_FIELD: opening global file: ones_64b.bin
(PID.TID 0000.0001)  MDS_WRITE_FIELD: it,rec,kS,kL,kH=       1     3   1   1   1 file=xx_atemp.effective.0000000001
(PID.TID 0000.0001)  MDS_READ_FIELD: opening global file: xx_atemp.effective.0000000001.data
(PID.TID 0000.0001)  MDS_READ_FIELD: opening global file: ones_64b.bin
(PID.TID 0000.0001)  MDS_WRITE_FIELD: it,rec,kS,kL,kH=       1     4   1   1   1 file=xx_atemp.effective.0000000001
(PID.TID 0000.0001)  MDS_READ_FIELD: opening global file: xx_atemp.effective.0000000001.data
(PID.TID 0000.0001)  MDS_READ_FIELD: opening global file: ones_64b.bin
(PID.TID 0000.0001)  MDS_WRITE_FIELD: it,rec,kS,kL,kH=       1     5   1   1   1 file=xx_atemp.effective.0000000001
(PID.TID 0000.0001)  MDS_READ_FIELD: opening global file: xx_atemp.effective.0000000001.data
(PID.TID 0000.0001)  MDS_READ_FIELD: opening global file: ones_64b.bin
(PID.TID 0000.0001)  MDS_WRITE_FIELD: it,rec,kS,kL,kH=       1     6   1   1   1 file=xx_atemp.effective.0000000001
(PID.TID 0000.0001)  MDS_READ_FIELD: opening global file: xx_atemp.effective.0000000001.data
(PID.TID 0000.0001)  MDS_READ_FIELD: opening global file: ones_64b.bin
(PID.TID 0000.0001)  MDS_WRITE_FIELD: it,rec,kS,kL,kH=       1     7   1   1   1 file=xx_atemp.effective.0000000001
(PID.TID 0000.0001)  MDS_READ_FIELD: opening global file: xx_atemp.effective.0000000001.data
(PID.TID 0000.0001)  MDS_READ_FIELD: opening global file: ones_64b.bin
(PID.TID 0000.0001)  MDS_WRITE_FIELD: it,rec,kS,kL,kH=       1     8   1   1   1 file=xx_atemp.effective.0000000001
(PID.TID 0000.0001)  MDS_READ_FIELD: opening global file: xx_atemp.effective.0000000001.data
(PID.TID 0000.0001)  MDS_READ_FIELD: opening global file: ones_64b.bin
(PID.TID 0000.0001)  MDS_WRITE_FIELD: it,rec,kS,kL,kH=       1     9   1   1   1 file=xx_atemp.effective.0000000001
(PID.TID 0000.0001)  MDS_READ_FIELD: opening global file: xx_atemp.effective.0000000001.data
(PID.TID 0000.0001)  MDS_READ_FIELD: opening global file: ones_64b.bin
(PID.TID 0000.0001)  MDS_WRITE_FIELD: it,rec,kS,kL,kH=       1    10   1   1   1 file=xx_atemp.effective.0000000001
(PID.TID 0000.0001)  MDS_READ_FIELD: opening global file: xx_atemp.effective.0000000001.data
(PID.TID 0000.0001)  MDS_READ_FIELD: opening global file: ones_64b.bin
(PID.TID 0000.0001)  MDS_WRITE_FIELD: it,rec,kS,kL,kH=       1    11   1   1   1 file=xx_atemp.effective.0000000001
(PID.TID 0000.0001) // =======================================================
(PID.TID 0000.0001) // Model current state
(PID.TID 0000.0001) // =======================================================
(PID.TID 0000.0001) 
(PID.TID 0000.0001)  MDS_WRITE_FIELD: it,rec,kS,kL,kH=       1     1   1   1   1 file=m_sst_step.0000000001
(PID.TID 0000.0001)  MDS_READ_FIELD: opening global file: xx_atemp.effective.0000000001.data
(PID.TID 0000.0001)  MDS_READ_FIELD: opening global file: xx_atemp.effective.0000000001.data
(PID.TID 0000.0001) EXF_SET_FLD: processing field "climsss",  file: SSS_monthly.labsea1979
(PID.TID 0000.0001) EXF_SET_FLD:   myIter, count0, count1:         0      1      2
(PID.TID 0000.0001) EXF_SET_FLD:   first, changed, fac:   T   F    0.50000000000000000
(PID.TID 0000.0001) EXF_SET_FLD: field "climsss", it=         0, loading rec=     1
(PID.TID 0000.0001) EXF_SET_FLD:   from file: "SSS_monthly.labsea1979"
(PID.TID 0000.0001)  MDS_READ_FIELD: opening global file: SSS_monthly.labsea1979
(PID.TID 0000.0001) EXF_SET_FLD: field "climsss", it=         0, loading rec=     2
(PID.TID 0000.0001) EXF_SET_FLD:   from file: "SSS_monthly.labsea1979"
(PID.TID 0000.0001)  MDS_READ_FIELD: opening global file: SSS_monthly.labsea1979
(PID.TID 0000.0001) EXF_SET_FLD: processing field "uwind",  file: u10m.labsea1979
(PID.TID 0000.0001) EXF_SET_FLD:   myIter, count0, count1:         0      1      2
(PID.TID 0000.0001) EXF_SET_FLD:   first, changed, fac:   T   F    0.50000000000000000
(PID.TID 0000.0001) EXF_SET_FLD: field "uwind", it=         0, loading rec=     1
(PID.TID 0000.0001) EXF_SET_FLD:   from file: "u10m.labsea1979"
(PID.TID 0000.0001)  MDS_READ_FIELD: opening global file: u10m.labsea1979
(PID.TID 0000.0001) EXF_SET_FLD: field "uwind", it=         0, loading rec=     2
(PID.TID 0000.0001) EXF_SET_FLD:   from file: "u10m.labsea1979"
(PID.TID 0000.0001)  MDS_READ_FIELD: opening global file: u10m.labsea1979
(PID.TID 0000.0001) EXF_SET_FLD: processing field "vwind",  file: v10m.labsea1979
(PID.TID 0000.0001) EXF_SET_FLD:   myIter, count0, count1:         0      1      2
(PID.TID 0000.0001) EXF_SET_FLD:   first, changed, fac:   T   F    0.50000000000000000
(PID.TID 0000.0001) EXF_SET_FLD: field "vwind", it=         0, loading rec=     1
(PID.TID 0000.0001) EXF_SET_FLD:   from file: "v10m.labsea1979"
(PID.TID 0000.0001)  MDS_READ_FIELD: opening global file: v10m.labsea1979
(PID.TID 0000.0001) EXF_SET_FLD: field "vwind", it=         0, loading rec=     2
(PID.TID 0000.0001) EXF_SET_FLD:   from file: "v10m.labsea1979"
(PID.TID 0000.0001)  MDS_READ_FIELD: opening global file: v10m.labsea1979
(PID.TID 0000.0001) EXF_SET_FLD: processing field "atemp",  file: tair.labsea1979
(PID.TID 0000.0001) EXF_SET_FLD:   myIter, count0, count1:         0      1      2
(PID.TID 0000.0001) EXF_SET_FLD:   first, changed, fac:   T   F    0.50000000000000000
(PID.TID 0000.0001) EXF_SET_FLD: field "atemp", it=         0, loading rec=     1
(PID.TID 0000.0001) EXF_SET_FLD:   from file: "tair.labsea1979"
(PID.TID 0000.0001)  MDS_READ_FIELD: opening global file: tair.labsea1979
(PID.TID 0000.0001) EXF_SET_FLD: field "atemp", it=         0, loading rec=     2
(PID.TID 0000.0001) EXF_SET_FLD:   from file: "tair.labsea1979"
(PID.TID 0000.0001)  MDS_READ_FIELD: opening global file: tair.labsea1979
(PID.TID 0000.0001) EXF_SET_FLD: processing field "aqh",  file: qa.labsea1979
(PID.TID 0000.0001) EXF_SET_FLD:   myIter, count0, count1:         0      1      2
(PID.TID 0000.0001) EXF_SET_FLD:   first, changed, fac:   T   F    0.50000000000000000
(PID.TID 0000.0001) EXF_SET_FLD: field "aqh", it=         0, loading rec=     1
(PID.TID 0000.0001) EXF_SET_FLD:   from file: "qa.labsea1979"
(PID.TID 0000.0001)  MDS_READ_FIELD: opening global file: qa.labsea1979
(PID.TID 0000.0001) EXF_SET_FLD: field "aqh", it=         0, loading rec=     2
(PID.TID 0000.0001) EXF_SET_FLD:   from file: "qa.labsea1979"
(PID.TID 0000.0001)  MDS_READ_FIELD: opening global file: qa.labsea1979
(PID.TID 0000.0001) EXF_SET_FLD: processing field "precip",  file: prate.labsea1979
(PID.TID 0000.0001) EXF_SET_FLD:   myIter, count0, count1:         0      1      2
(PID.TID 0000.0001) EXF_SET_FLD:   first, changed, fac:   T   F    0.50000000000000000
(PID.TID 0000.0001) EXF_SET_FLD: field "precip", it=         0, loading rec=     1
(PID.TID 0000.0001) EXF_SET_FLD:   from file: "prate.labsea1979"
(PID.TID 0000.0001)  MDS_READ_FIELD: opening global file: prate.labsea1979
(PID.TID 0000.0001) EXF_SET_FLD: field "precip", it=         0, loading rec=     2
(PID.TID 0000.0001) EXF_SET_FLD:   from file: "prate.labsea1979"
(PID.TID 0000.0001)  MDS_READ_FIELD: opening global file: prate.labsea1979
(PID.TID 0000.0001) EXF_SET_FLD: processing field "swdown",  file: fsh.labsea1979
(PID.TID 0000.0001) EXF_SET_FLD:   myIter, count0, count1:         0      1      2
(PID.TID 0000.0001) EXF_SET_FLD:   first, changed, fac:   T   F    0.50000000000000000
(PID.TID 0000.0001) EXF_SET_FLD: field "swdown", it=         0, loading rec=     1
(PID.TID 0000.0001) EXF_SET_FLD:   from file: "fsh.labsea1979"
(PID.TID 0000.0001)  MDS_READ_FIELD: opening global file: fsh.labsea1979
(PID.TID 0000.0001) EXF_SET_FLD: field "swdown", it=         0, loading rec=     2
(PID.TID 0000.0001) EXF_SET_FLD:   from file: "fsh.labsea1979"
(PID.TID 0000.0001)  MDS_READ_FIELD: opening global file: fsh.labsea1979
(PID.TID 0000.0001) EXF_SET_FLD: processing field "lwdown",  file: flo.labsea1979
(PID.TID 0000.0001) EXF_SET_FLD:   myIter, count0, count1:         0      1      2
(PID.TID 0000.0001) EXF_SET_FLD:   first, changed, fac:   T   F    0.50000000000000000
(PID.TID 0000.0001) EXF_SET_FLD: field "lwdown", it=         0, loading rec=     1
(PID.TID 0000.0001) EXF_SET_FLD:   from file: "flo.labsea1979"
(PID.TID 0000.0001)  MDS_READ_FIELD: opening global file: flo.labsea1979
(PID.TID 0000.0001) EXF_SET_FLD: field "lwdown", it=         0, loading rec=     2
(PID.TID 0000.0001) EXF_SET_FLD:   from file: "flo.labsea1979"
(PID.TID 0000.0001)  MDS_READ_FIELD: opening global file: flo.labsea1979
DEBUG_STATS_RL: Uice pre  iter (SEAICE_LSR  1)  min=  0.00000000000000E+00
DEBUG_STATS_RL: Uice pre  iter (SEAICE_LSR  1)  max=  0.00000000000000E+00
DEBUG_STATS_RL: Uice pre  iter (SEAICE_LSR  1) mean=  0.00000000000000E+00
DEBUG_STATS_RL: Uice pre  iter (SEAICE_LSR  1) S.D.=  0.00000000000000E+00
DEBUG_STATS_RL: Vice pre  iter (SEAICE_LSR  1)  min=  0.00000000000000E+00
DEBUG_STATS_RL: Vice pre  iter (SEAICE_LSR  1)  max=  0.00000000000000E+00
DEBUG_STATS_RL: Vice pre  iter (SEAICE_LSR  1) mean=  0.00000000000000E+00
DEBUG_STATS_RL: Vice pre  iter (SEAICE_LSR  1) S.D.=  0.00000000000000E+00
DEBUG_STATS_RL: Uice pre  iter (SEAICE_LSR  2)  min= -4.74478293331770E-04
DEBUG_STATS_RL: Uice pre  iter (SEAICE_LSR  2)  max=  5.19863184318560E-03
DEBUG_STATS_RL: Uice pre  iter (SEAICE_LSR  2) mean=  1.15969103043184E-03
DEBUG_STATS_RL: Uice pre  iter (SEAICE_LSR  2) S.D.=  1.37050304765703E-03
DEBUG_STATS_RL: Vice pre  iter (SEAICE_LSR  2)  min= -2.82028703630720E-03
DEBUG_STATS_RL: Vice pre  iter (SEAICE_LSR  2)  max=  8.55909305417855E-04
DEBUG_STATS_RL: Vice pre  iter (SEAICE_LSR  2) mean= -7.32602707228794E-04
DEBUG_STATS_RL: Vice pre  iter (SEAICE_LSR  2) S.D.=  9.65742386214621E-04
DEBUG_STATS_RL:                EtaN (DYNAMICS)  min=  0.00000000000000E+00
DEBUG_STATS_RL:                EtaN (DYNAMICS)  max=  0.00000000000000E+00
DEBUG_STATS_RL:                EtaN (DYNAMICS) mean=  0.00000000000000E+00
DEBUG_STATS_RL:                EtaN (DYNAMICS) S.D.=  0.00000000000000E+00
DEBUG_STATS_RL:                Uvel (DYNAMICS)  min=  0.00000000000000E+00
DEBUG_STATS_RL:                Uvel (DYNAMICS)  max=  0.00000000000000E+00
DEBUG_STATS_RL:                Uvel (DYNAMICS) mean=  0.00000000000000E+00
DEBUG_STATS_RL:                Uvel (DYNAMICS) S.D.=  0.00000000000000E+00
DEBUG_STATS_RL:                Vvel (DYNAMICS)  min=  0.00000000000000E+00
DEBUG_STATS_RL:                Vvel (DYNAMICS)  max=  0.00000000000000E+00
DEBUG_STATS_RL:                Vvel (DYNAMICS) mean=  0.00000000000000E+00
DEBUG_STATS_RL:                Vvel (DYNAMICS) S.D.=  0.00000000000000E+00
DEBUG_STATS_RL:                Wvel (DYNAMICS)  min=  0.00000000000000E+00
DEBUG_STATS_RL:                Wvel (DYNAMICS)  max=  0.00000000000000E+00
DEBUG_STATS_RL:                Wvel (DYNAMICS) mean=  0.00000000000000E+00
DEBUG_STATS_RL:                Wvel (DYNAMICS) S.D.=  0.00000000000000E+00
DEBUG_STATS_RL:               Theta (DYNAMICS)  min= -1.41036188602448E+00
DEBUG_STATS_RL:               Theta (DYNAMICS)  max=  1.33330764770508E+01
DEBUG_STATS_RL:               Theta (DYNAMICS) mean=  2.90475522269124E+00
DEBUG_STATS_RL:               Theta (DYNAMICS) S.D.=  2.44037465259698E+00
DEBUG_STATS_RL:                Salt (DYNAMICS)  min=  3.01286983489990E+01
DEBUG_STATS_RL:                Salt (DYNAMICS)  max=  3.54506225585938E+01
DEBUG_STATS_RL:                Salt (DYNAMICS) mean=  3.40845304745500E+01
DEBUG_STATS_RL:                Salt (DYNAMICS) S.D.=  9.00924836964808E-01
DEBUG_STATS_RL:                  Gu (DYNAMICS)  min= -2.00599447531986E-02
DEBUG_STATS_RL:                  Gu (DYNAMICS)  max=  1.04076999541495E-02
DEBUG_STATS_RL:                  Gu (DYNAMICS) mean= -2.58939542765896E-03
DEBUG_STATS_RL:                  Gu (DYNAMICS) S.D.=  4.84472279217175E-03
DEBUG_STATS_RL:                  Gv (DYNAMICS)  min= -2.97181268783620E-02
DEBUG_STATS_RL:                  Gv (DYNAMICS)  max=  1.05795727308992E-02
DEBUG_STATS_RL:                  Gv (DYNAMICS) mean= -1.51075895161939E-03
DEBUG_STATS_RL:                  Gv (DYNAMICS) S.D.=  5.23505354600419E-03
DEBUG_STATS_RL:               GuNm1 (DYNAMICS)  min=  0.00000000000000E+00
DEBUG_STATS_RL:               GuNm1 (DYNAMICS)  max=  0.00000000000000E+00
DEBUG_STATS_RL:               GuNm1 (DYNAMICS) mean=  0.00000000000000E+00
DEBUG_STATS_RL:               GuNm1 (DYNAMICS) S.D.=  0.00000000000000E+00
DEBUG_STATS_RL:               GvNm1 (DYNAMICS)  min=  0.00000000000000E+00
DEBUG_STATS_RL:               GvNm1 (DYNAMICS)  max=  0.00000000000000E+00
DEBUG_STATS_RL:               GvNm1 (DYNAMICS) mean=  0.00000000000000E+00
DEBUG_STATS_RL:               GvNm1 (DYNAMICS) S.D.=  0.00000000000000E+00
DEBUG_STATS_RL:               GtNm1 (DYNAMICS)  min=  0.00000000000000E+00
DEBUG_STATS_RL:               GtNm1 (DYNAMICS)  max=  0.00000000000000E+00
DEBUG_STATS_RL:               GtNm1 (DYNAMICS) mean=  0.00000000000000E+00
DEBUG_STATS_RL:               GtNm1 (DYNAMICS) S.D.=  0.00000000000000E+00
DEBUG_STATS_RL:               GsNm1 (DYNAMICS)  min=  0.00000000000000E+00
DEBUG_STATS_RL:               GsNm1 (DYNAMICS)  max=  0.00000000000000E+00
DEBUG_STATS_RL:               GsNm1 (DYNAMICS) mean=  0.00000000000000E+00
DEBUG_STATS_RL:               GsNm1 (DYNAMICS) S.D.=  0.00000000000000E+00
(PID.TID 0000.0001) SOLVE_FOR_PRESSURE: putPmEinXvector =    F
DEBUG_STATS_RL:    cg2d_b (SOLVE_FOR_PRESSURE)  min= -6.15797366908278E+03
DEBUG_STATS_RL:    cg2d_b (SOLVE_FOR_PRESSURE)  max=  2.03762696322118E+03
DEBUG_STATS_RL:    cg2d_b (SOLVE_FOR_PRESSURE) mean=  2.40637139844087E-14
DEBUG_STATS_RL:    cg2d_b (SOLVE_FOR_PRESSURE) S.D.=  8.03730450548215E+02
 cg2d: Sum(rhs),rhsMax =   7.91033905045424E-16  9.91122157459750E-01
DEBUG_STATS_RL:    cg2d_x (SOLVE_FOR_PRESSURE)  min= -7.77200124675132E-01
DEBUG_STATS_RL:    cg2d_x (SOLVE_FOR_PRESSURE)  max=  2.02552651121663E+00
DEBUG_STATS_RL:    cg2d_x (SOLVE_FOR_PRESSURE) mean= -8.58037095103906E-03
DEBUG_STATS_RL:    cg2d_x (SOLVE_FOR_PRESSURE) S.D.=  4.14863218307968E-01
DEBUG_STATS_RL:          Uvel (THERMODYNAMICS)  min= -1.97613285723242E-02
DEBUG_STATS_RL:          Uvel (THERMODYNAMICS)  max=  1.31897193240012E-02
DEBUG_STATS_RL:          Uvel (THERMODYNAMICS) mean= -7.76915115649382E-04
DEBUG_STATS_RL:          Uvel (THERMODYNAMICS) S.D.=  3.97168834923499E-03
DEBUG_STATS_RL:          Vvel (THERMODYNAMICS)  min= -1.13773235335529E-02
DEBUG_STATS_RL:          Vvel (THERMODYNAMICS)  max=  2.04284639774261E-02
DEBUG_STATS_RL:          Vvel (THERMODYNAMICS) mean=  7.24190880687442E-04
DEBUG_STATS_RL:          Vvel (THERMODYNAMICS) S.D.=  4.28907995073846E-03
DEBUG_STATS_RL:          Wvel (THERMODYNAMICS)  min= -4.27131465138430E-05
DEBUG_STATS_RL:          Wvel (THERMODYNAMICS)  max=  1.16530364658749E-04
DEBUG_STATS_RL:          Wvel (THERMODYNAMICS) mean= -4.07763417598552E-07
DEBUG_STATS_RL:          Wvel (THERMODYNAMICS) S.D.=  1.80149904412009E-05
DEBUG_STATS_RL:         Theta (THERMODYNAMICS)  min= -1.41019615972461E+00
DEBUG_STATS_RL:         Theta (THERMODYNAMICS)  max=  1.32440592110212E+01
DEBUG_STATS_RL:         Theta (THERMODYNAMICS) mean=  2.49735783552472E+00
DEBUG_STATS_RL:         Theta (THERMODYNAMICS) S.D.=  2.45807980529386E+00
DEBUG_STATS_RL:          Salt (THERMODYNAMICS)  min=  2.76560994014067E+01
DEBUG_STATS_RL:          Salt (THERMODYNAMICS)  max=  3.54507778736995E+01
DEBUG_STATS_RL:          Salt (THERMODYNAMICS) mean=  3.39623217189239E+01
DEBUG_STATS_RL:          Salt (THERMODYNAMICS) S.D.=  1.10108958710349E+00
DEBUG_STATS_RL:         GtNm1 (THERMODYNAMICS)  min=  0.00000000000000E+00
DEBUG_STATS_RL:         GtNm1 (THERMODYNAMICS)  max=  0.00000000000000E+00
DEBUG_STATS_RL:         GtNm1 (THERMODYNAMICS) mean=  0.00000000000000E+00
DEBUG_STATS_RL:         GtNm1 (THERMODYNAMICS) S.D.=  0.00000000000000E+00
DEBUG_STATS_RL:         GsNm1 (THERMODYNAMICS)  min=  0.00000000000000E+00
DEBUG_STATS_RL:         GsNm1 (THERMODYNAMICS)  max=  0.00000000000000E+00
DEBUG_STATS_RL:         GsNm1 (THERMODYNAMICS) mean=  0.00000000000000E+00
DEBUG_STATS_RL:         GsNm1 (THERMODYNAMICS) S.D.=  0.00000000000000E+00
(PID.TID 0000.0001)  MDS_WRITE_FIELD: it,rec,kS,kL,kH=       1     2   1   1   1 file=m_sst_step.0000000001
(PID.TID 0000.0001)  MDS_READ_FIELD: opening global file: xx_atemp.effective.0000000001.data
(PID.TID 0000.0001) EXF_SET_FLD: processing field "climsss",  file: SSS_monthly.labsea1979
(PID.TID 0000.0001) EXF_SET_FLD:   myIter, count0, count1:         1      1      2
(PID.TID 0000.0001) EXF_SET_FLD:   first, changed, fac:   F   F    0.49863387978142082
(PID.TID 0000.0001) EXF_SET_FLD: processing field "uwind",  file: u10m.labsea1979
(PID.TID 0000.0001) EXF_SET_FLD:   myIter, count0, count1:         1      1      2
(PID.TID 0000.0001) EXF_SET_FLD:   first, changed, fac:   F   F    0.49863387978142082
(PID.TID 0000.0001) EXF_SET_FLD: processing field "vwind",  file: v10m.labsea1979
(PID.TID 0000.0001) EXF_SET_FLD:   myIter, count0, count1:         1      1      2
(PID.TID 0000.0001) EXF_SET_FLD:   first, changed, fac:   F   F    0.49863387978142082
(PID.TID 0000.0001) EXF_SET_FLD: processing field "atemp",  file: tair.labsea1979
(PID.TID 0000.0001) EXF_SET_FLD:   myIter, count0, count1:         1      1      2
(PID.TID 0000.0001) EXF_SET_FLD:   first, changed, fac:   F   F    0.49863387978142082
(PID.TID 0000.0001) EXF_SET_FLD: processing field "aqh",  file: qa.labsea1979
(PID.TID 0000.0001) EXF_SET_FLD:   myIter, count0, count1:         1      1      2
(PID.TID 0000.0001) EXF_SET_FLD:   first, changed, fac:   F   F    0.49863387978142082
(PID.TID 0000.0001) EXF_SET_FLD: processing field "precip",  file: prate.labsea1979
(PID.TID 0000.0001) EXF_SET_FLD:   myIter, count0, count1:         1      1      2
(PID.TID 0000.0001) EXF_SET_FLD:   first, changed, fac:   F   F    0.49863387978142082
(PID.TID 0000.0001) EXF_SET_FLD: processing field "swdown",  file: fsh.labsea1979
(PID.TID 0000.0001) EXF_SET_FLD:   myIter, count0, count1:         1      1      2
(PID.TID 0000.0001) EXF_SET_FLD:   first, changed, fac:   F   F    0.49863387978142082
(PID.TID 0000.0001) EXF_SET_FLD: processing field "lwdown",  file: flo.labsea1979
(PID.TID 0000.0001) EXF_SET_FLD:   myIter, count0, count1:         1      1      2
(PID.TID 0000.0001) EXF_SET_FLD:   first, changed, fac:   F   F    0.49863387978142082
DEBUG_STATS_RL: Uice pre  iter (SEAICE_LSR  1)  min= -1.15942749827435E-03
DEBUG_STATS_RL: Uice pre  iter (SEAICE_LSR  1)  max=  1.20418167656252E-02
DEBUG_STATS_RL: Uice pre  iter (SEAICE_LSR  1) mean=  2.64506216410235E-03
DEBUG_STATS_RL: Uice pre  iter (SEAICE_LSR  1) S.D.=  3.13774756817759E-03
DEBUG_STATS_RL: Vice pre  iter (SEAICE_LSR  1)  min= -5.99336397479914E-03
DEBUG_STATS_RL: Vice pre  iter (SEAICE_LSR  1)  max=  4.08760906980194E-03
DEBUG_STATS_RL: Vice pre  iter (SEAICE_LSR  1) mean= -1.18494610218030E-03
DEBUG_STATS_RL: Vice pre  iter (SEAICE_LSR  1) S.D.=  2.51572614879252E-03
DEBUG_STATS_RL: Uice pre  iter (SEAICE_LSR  2)  min= -1.66461661595648E-03
DEBUG_STATS_RL: Uice pre  iter (SEAICE_LSR  2)  max=  2.05817158221004E-01
DEBUG_STATS_RL: Uice pre  iter (SEAICE_LSR  2) mean=  2.18937658776562E-02
DEBUG_STATS_RL: Uice pre  iter (SEAICE_LSR  2) S.D.=  4.15140060700931E-02
DEBUG_STATS_RL: Vice pre  iter (SEAICE_LSR  2)  min= -1.15170217241230E-02
DEBUG_STATS_RL: Vice pre  iter (SEAICE_LSR  2)  max=  6.02623623339015E-02
DEBUG_STATS_RL: Vice pre  iter (SEAICE_LSR  2) mean= -5.88552864019179E-04
DEBUG_STATS_RL: Vice pre  iter (SEAICE_LSR  2) S.D.=  1.21471679479003E-02
DEBUG_STATS_RL:                EtaN (DYNAMICS)  min= -7.91800933896177E-02
DEBUG_STATS_RL:                EtaN (DYNAMICS)  max=  2.06357890624784E-01
DEBUG_STATS_RL:                EtaN (DYNAMICS) mean= -8.74156541733471E-04
DEBUG_STATS_RL:                EtaN (DYNAMICS) S.D.=  4.22657013639480E-02
DEBUG_STATS_RL:                Uvel (DYNAMICS)  min= -1.97613285723242E-02
DEBUG_STATS_RL:                Uvel (DYNAMICS)  max=  1.31897193240012E-02
DEBUG_STATS_RL:                Uvel (DYNAMICS) mean= -7.76915115649382E-04
DEBUG_STATS_RL:                Uvel (DYNAMICS) S.D.=  3.97168834923499E-03
DEBUG_STATS_RL:                Vvel (DYNAMICS)  min= -1.13773235335529E-02
DEBUG_STATS_RL:                Vvel (DYNAMICS)  max=  2.04284639774261E-02
DEBUG_STATS_RL:                Vvel (DYNAMICS) mean=  7.24190880687442E-04
DEBUG_STATS_RL:                Vvel (DYNAMICS) S.D.=  4.28907995073846E-03
DEBUG_STATS_RL:                Wvel (DYNAMICS)  min= -4.27131465138430E-05
DEBUG_STATS_RL:                Wvel (DYNAMICS)  max=  1.16530364658749E-04
DEBUG_STATS_RL:                Wvel (DYNAMICS) mean= -4.07763417598552E-07
DEBUG_STATS_RL:                Wvel (DYNAMICS) S.D.=  1.80149904412009E-05
DEBUG_STATS_RL:               Theta (DYNAMICS)  min= -1.41019615972461E+00
DEBUG_STATS_RL:               Theta (DYNAMICS)  max=  1.32440592110212E+01
DEBUG_STATS_RL:               Theta (DYNAMICS) mean=  2.49735783552472E+00
DEBUG_STATS_RL:               Theta (DYNAMICS) S.D.=  2.45807980529386E+00
DEBUG_STATS_RL:                Salt (DYNAMICS)  min=  2.76560994014067E+01
DEBUG_STATS_RL:                Salt (DYNAMICS)  max=  3.54507778736995E+01
DEBUG_STATS_RL:                Salt (DYNAMICS) mean=  3.39623217189239E+01
DEBUG_STATS_RL:                Salt (DYNAMICS) S.D.=  1.10108958710349E+00
DEBUG_STATS_RL:                  Gu (DYNAMICS)  min= -2.89112950168885E-02
DEBUG_STATS_RL:                  Gu (DYNAMICS)  max=  3.25741619058382E-02
DEBUG_STATS_RL:                  Gu (DYNAMICS) mean= -2.32520622241443E-03
DEBUG_STATS_RL:                  Gu (DYNAMICS) S.D.=  7.09155735784787E-03
DEBUG_STATS_RL:                  Gv (DYNAMICS)  min= -3.71241625510621E-02
DEBUG_STATS_RL:                  Gv (DYNAMICS)  max=  1.83230442031147E-02
DEBUG_STATS_RL:                  Gv (DYNAMICS) mean= -1.89259208720561E-03
DEBUG_STATS_RL:                  Gv (DYNAMICS) S.D.=  7.31046974976089E-03
DEBUG_STATS_RL:               GuNm1 (DYNAMICS)  min= -1.80289983389196E-07
DEBUG_STATS_RL:               GuNm1 (DYNAMICS)  max=  1.49251399870334E-07
DEBUG_STATS_RL:               GuNm1 (DYNAMICS) mean=  3.41794292088730E-09
DEBUG_STATS_RL:               GuNm1 (DYNAMICS) S.D.=  3.19693794884499E-08
DEBUG_STATS_RL:               GvNm1 (DYNAMICS)  min= -5.11118133734402E-08
DEBUG_STATS_RL:               GvNm1 (DYNAMICS)  max=  4.88281454922596E-08
DEBUG_STATS_RL:               GvNm1 (DYNAMICS) mean= -4.70245831256227E-11
DEBUG_STATS_RL:               GvNm1 (DYNAMICS) S.D.=  1.42003013108260E-08
DEBUG_STATS_RL:               GtNm1 (DYNAMICS)  min=  0.00000000000000E+00
DEBUG_STATS_RL:               GtNm1 (DYNAMICS)  max=  0.00000000000000E+00
DEBUG_STATS_RL:               GtNm1 (DYNAMICS) mean=  0.00000000000000E+00
DEBUG_STATS_RL:               GtNm1 (DYNAMICS) S.D.=  0.00000000000000E+00
DEBUG_STATS_RL:               GsNm1 (DYNAMICS)  min=  0.00000000000000E+00
DEBUG_STATS_RL:               GsNm1 (DYNAMICS)  max=  0.00000000000000E+00
DEBUG_STATS_RL:               GsNm1 (DYNAMICS) mean=  0.00000000000000E+00
DEBUG_STATS_RL:               GsNm1 (DYNAMICS) S.D.=  0.00000000000000E+00
DEBUG_STATS_RL:    cg2d_b (SOLVE_FOR_PRESSURE)  min= -7.40048897093643E+03
DEBUG_STATS_RL:    cg2d_b (SOLVE_FOR_PRESSURE)  max=  2.33428667016753E+03
DEBUG_STATS_RL:    cg2d_b (SOLVE_FOR_PRESSURE) mean=  5.00222085975111E-14
DEBUG_STATS_RL:    cg2d_b (SOLVE_FOR_PRESSURE) S.D.=  9.39768538610460E+02
 cg2d: Sum(rhs),rhsMax =   3.88578058618805E-16  1.19110424780756E+00
DEBUG_STATS_RL:    cg2d_x (SOLVE_FOR_PRESSURE)  min= -1.25977767814655E+00
DEBUG_STATS_RL:    cg2d_x (SOLVE_FOR_PRESSURE)  max=  2.83276936769473E+00
DEBUG_STATS_RL:    cg2d_x (SOLVE_FOR_PRESSURE) mean= -1.56118539430819E-02
DEBUG_STATS_RL:    cg2d_x (SOLVE_FOR_PRESSURE) S.D.=  6.63083405129804E-01
DEBUG_STATS_RL:          Uvel (THERMODYNAMICS)  min= -4.02432897586659E-02
DEBUG_STATS_RL:          Uvel (THERMODYNAMICS)  max=  3.23458159885900E-02
DEBUG_STATS_RL:          Uvel (THERMODYNAMICS) mean=  6.75465330212654E-04
DEBUG_STATS_RL:          Uvel (THERMODYNAMICS) S.D.=  7.33761384667139E-03
DEBUG_STATS_RL:          Vvel (THERMODYNAMICS)  min= -1.64862319058741E-02
DEBUG_STATS_RL:          Vvel (THERMODYNAMICS)  max=  4.21759382970962E-02
DEBUG_STATS_RL:          Vvel (THERMODYNAMICS) mean=  1.82858022907751E-03
DEBUG_STATS_RL:          Vvel (THERMODYNAMICS) S.D.=  8.08424055893925E-03
DEBUG_STATS_RL:          Wvel (THERMODYNAMICS)  min= -6.56490529174603E-05
DEBUG_STATS_RL:          Wvel (THERMODYNAMICS)  max=  1.68683217295649E-04
DEBUG_STATS_RL:          Wvel (THERMODYNAMICS) mean= -4.30739495112878E-07
DEBUG_STATS_RL:          Wvel (THERMODYNAMICS) S.D.=  1.89945067258158E-05
DEBUG_STATS_RL:         Theta (THERMODYNAMICS)  min= -1.83156742552816E+00
DEBUG_STATS_RL:         Theta (THERMODYNAMICS)  max=  1.32606612249659E+01
DEBUG_STATS_RL:         Theta (THERMODYNAMICS) mean=  2.43057765558689E+00
DEBUG_STATS_RL:         Theta (THERMODYNAMICS) S.D.=  2.55246643542934E+00
DEBUG_STATS_RL:          Salt (THERMODYNAMICS)  min=  2.76092906345221E+01
DEBUG_STATS_RL:          Salt (THERMODYNAMICS)  max=  3.54509236522671E+01
DEBUG_STATS_RL:          Salt (THERMODYNAMICS) mean=  3.39413044254440E+01
DEBUG_STATS_RL:          Salt (THERMODYNAMICS) S.D.=  1.14495872836420E+00
DEBUG_STATS_RL:         GtNm1 (THERMODYNAMICS)  min=  0.00000000000000E+00
DEBUG_STATS_RL:         GtNm1 (THERMODYNAMICS)  max=  0.00000000000000E+00
DEBUG_STATS_RL:         GtNm1 (THERMODYNAMICS) mean=  0.00000000000000E+00
DEBUG_STATS_RL:         GtNm1 (THERMODYNAMICS) S.D.=  0.00000000000000E+00
DEBUG_STATS_RL:         GsNm1 (THERMODYNAMICS)  min=  0.00000000000000E+00
DEBUG_STATS_RL:         GsNm1 (THERMODYNAMICS)  max=  0.00000000000000E+00
DEBUG_STATS_RL:         GsNm1 (THERMODYNAMICS) mean=  0.00000000000000E+00
DEBUG_STATS_RL:         GsNm1 (THERMODYNAMICS) S.D.=  0.00000000000000E+00
(PID.TID 0000.0001)  MDS_WRITE_FIELD: it,rec,kS,kL,kH=       1     3   1   1   1 file=m_sst_step.0000000001
(PID.TID 0000.0001)  MDS_READ_FIELD: opening global file: xx_atemp.effective.0000000001.data
(PID.TID 0000.0001) EXF_SET_FLD: processing field "climsss",  file: SSS_monthly.labsea1979
(PID.TID 0000.0001) EXF_SET_FLD:   myIter, count0, count1:         2      1      2
(PID.TID 0000.0001) EXF_SET_FLD:   first, changed, fac:   F   F    0.49726775956284153
(PID.TID 0000.0001) EXF_SET_FLD: processing field "uwind",  file: u10m.labsea1979
(PID.TID 0000.0001) EXF_SET_FLD:   myIter, count0, count1:         2      1      2
(PID.TID 0000.0001) EXF_SET_FLD:   first, changed, fac:   F   F    0.49726775956284153
(PID.TID 0000.0001) EXF_SET_FLD: processing field "vwind",  file: v10m.labsea1979
(PID.TID 0000.0001) EXF_SET_FLD:   myIter, count0, count1:         2      1      2
(PID.TID 0000.0001) EXF_SET_FLD:   first, changed, fac:   F   F    0.49726775956284153
(PID.TID 0000.0001) EXF_SET_FLD: processing field "atemp",  file: tair.labsea1979
(PID.TID 0000.0001) EXF_SET_FLD:   myIter, count0, count1:         2      1      2
(PID.TID 0000.0001) EXF_SET_FLD:   first, changed, fac:   F   F    0.49726775956284153
(PID.TID 0000.0001) EXF_SET_FLD: processing field "aqh",  file: qa.labsea1979
(PID.TID 0000.0001) EXF_SET_FLD:   myIter, count0, count1:         2      1      2
(PID.TID 0000.0001) EXF_SET_FLD:   first, changed, fac:   F   F    0.49726775956284153
(PID.TID 0000.0001) EXF_SET_FLD: processing field "precip",  file: prate.labsea1979
(PID.TID 0000.0001) EXF_SET_FLD:   myIter, count0, count1:         2      1      2
(PID.TID 0000.0001) EXF_SET_FLD:   first, changed, fac:   F   F    0.49726775956284153
(PID.TID 0000.0001) EXF_SET_FLD: processing field "swdown",  file: fsh.labsea1979
(PID.TID 0000.0001) EXF_SET_FLD:   myIter, count0, count1:         2      1      2
(PID.TID 0000.0001) EXF_SET_FLD:   first, changed, fac:   F   F    0.49726775956284153
(PID.TID 0000.0001) EXF_SET_FLD: processing field "lwdown",  file: flo.labsea1979
(PID.TID 0000.0001) EXF_SET_FLD:   myIter, count0, count1:         2      1      2
(PID.TID 0000.0001) EXF_SET_FLD:   first, changed, fac:   F   F    0.49726775956284153
DEBUG_STATS_RL: Uice pre  iter (SEAICE_LSR  1)  min= -2.72590911189867E-03
DEBUG_STATS_RL: Uice pre  iter (SEAICE_LSR  1)  max=  1.84821888363619E-01
DEBUG_STATS_RL: Uice pre  iter (SEAICE_LSR  1) mean=  4.43171854915902E-02
DEBUG_STATS_RL: Uice pre  iter (SEAICE_LSR  1) S.D.=  5.55969094952042E-02
DEBUG_STATS_RL: Vice pre  iter (SEAICE_LSR  1)  min= -3.16987209121493E-02
DEBUG_STATS_RL: Vice pre  iter (SEAICE_LSR  1)  max=  6.25866618672353E-02
DEBUG_STATS_RL: Vice pre  iter (SEAICE_LSR  1) mean= -5.92146683024231E-03
DEBUG_STATS_RL: Vice pre  iter (SEAICE_LSR  1) S.D.=  1.77615498816239E-02
DEBUG_STATS_RL: Uice pre  iter (SEAICE_LSR  2)  min= -3.50206878133233E-03
DEBUG_STATS_RL: Uice pre  iter (SEAICE_LSR  2)  max=  1.92025155896598E-01
DEBUG_STATS_RL: Uice pre  iter (SEAICE_LSR  2) mean=  5.29589963326798E-02
DEBUG_STATS_RL: Uice pre  iter (SEAICE_LSR  2) S.D.=  5.86189159300346E-02
DEBUG_STATS_RL: Vice pre  iter (SEAICE_LSR  2)  min= -6.12456112266560E-02
DEBUG_STATS_RL: Vice pre  iter (SEAICE_LSR  2)  max=  9.55317561460537E-02
DEBUG_STATS_RL: Vice pre  iter (SEAICE_LSR  2) mean= -1.11523016920055E-02
DEBUG_STATS_RL: Vice pre  iter (SEAICE_LSR  2) S.D.=  2.73762100026010E-02
DEBUG_STATS_RL:                EtaN (DYNAMICS)  min= -1.28344439274884E-01
DEBUG_STATS_RL:                EtaN (DYNAMICS)  max=  2.88598696737309E-01
DEBUG_STATS_RL:                EtaN (DYNAMICS) mean= -1.59051448134417E-03
DEBUG_STATS_RL:                EtaN (DYNAMICS) S.D.=  6.75540369544198E-02
DEBUG_STATS_RL:                Uvel (DYNAMICS)  min= -4.02432897586659E-02
DEBUG_STATS_RL:                Uvel (DYNAMICS)  max=  3.23458159885900E-02
DEBUG_STATS_RL:                Uvel (DYNAMICS) mean=  6.75465330212654E-04
DEBUG_STATS_RL:                Uvel (DYNAMICS) S.D.=  7.33761384667139E-03
DEBUG_STATS_RL:                Vvel (DYNAMICS)  min= -1.64862319058741E-02
DEBUG_STATS_RL:                Vvel (DYNAMICS)  max=  4.21759382970962E-02
DEBUG_STATS_RL:                Vvel (DYNAMICS) mean=  1.82858022907751E-03
DEBUG_STATS_RL:                Vvel (DYNAMICS) S.D.=  8.08424055893925E-03
DEBUG_STATS_RL:                Wvel (DYNAMICS)  min= -6.56490529174603E-05
DEBUG_STATS_RL:                Wvel (DYNAMICS)  max=  1.68683217295649E-04
DEBUG_STATS_RL:                Wvel (DYNAMICS) mean= -4.30739495112878E-07
DEBUG_STATS_RL:                Wvel (DYNAMICS) S.D.=  1.89945067258158E-05
DEBUG_STATS_RL:               Theta (DYNAMICS)  min= -1.83156742552816E+00
DEBUG_STATS_RL:               Theta (DYNAMICS)  max=  1.32606612249659E+01
DEBUG_STATS_RL:               Theta (DYNAMICS) mean=  2.43057765558689E+00
DEBUG_STATS_RL:               Theta (DYNAMICS) S.D.=  2.55246643542934E+00
DEBUG_STATS_RL:                Salt (DYNAMICS)  min=  2.76092906345221E+01
DEBUG_STATS_RL:                Salt (DYNAMICS)  max=  3.54509236522671E+01
DEBUG_STATS_RL:                Salt (DYNAMICS) mean=  3.39413044254440E+01
DEBUG_STATS_RL:                Salt (DYNAMICS) S.D.=  1.14495872836420E+00
DEBUG_STATS_RL:                  Gu (DYNAMICS)  min= -3.23510557472049E-02
DEBUG_STATS_RL:                  Gu (DYNAMICS)  max=  5.80377411256012E-02
DEBUG_STATS_RL:                  Gu (DYNAMICS) mean= -2.97572069517453E-04
DEBUG_STATS_RL:                  Gu (DYNAMICS) S.D.=  9.92934455351148E-03
DEBUG_STATS_RL:                  Gv (DYNAMICS)  min= -4.01882757136263E-02
DEBUG_STATS_RL:                  Gv (DYNAMICS)  max=  3.49568132071783E-02
DEBUG_STATS_RL:                  Gv (DYNAMICS) mean= -2.47632966119133E-03
DEBUG_STATS_RL:                  Gv (DYNAMICS) S.D.=  9.60357312380698E-03
DEBUG_STATS_RL:               GuNm1 (DYNAMICS)  min= -2.64915263690508E-07
DEBUG_STATS_RL:               GuNm1 (DYNAMICS)  max=  1.75889100747610E-07
DEBUG_STATS_RL:               GuNm1 (DYNAMICS) mean=  2.42191647085235E-09
DEBUG_STATS_RL:               GuNm1 (DYNAMICS) S.D.=  4.49076324942802E-08
DEBUG_STATS_RL:               GvNm1 (DYNAMICS)  min= -8.47298200117025E-08
DEBUG_STATS_RL:               GvNm1 (DYNAMICS)  max=  7.67749697778833E-08
DEBUG_STATS_RL:               GvNm1 (DYNAMICS) mean= -4.71533361263252E-10
DEBUG_STATS_RL:               GvNm1 (DYNAMICS) S.D.=  2.04113373444398E-08
DEBUG_STATS_RL:               GtNm1 (DYNAMICS)  min=  0.00000000000000E+00
DEBUG_STATS_RL:               GtNm1 (DYNAMICS)  max=  0.00000000000000E+00
DEBUG_STATS_RL:               GtNm1 (DYNAMICS) mean=  0.00000000000000E+00
DEBUG_STATS_RL:               GtNm1 (DYNAMICS) S.D.=  0.00000000000000E+00
DEBUG_STATS_RL:               GsNm1 (DYNAMICS)  min=  0.00000000000000E+00
DEBUG_STATS_RL:               GsNm1 (DYNAMICS)  max=  0.00000000000000E+00
DEBUG_STATS_RL:               GsNm1 (DYNAMICS) mean=  0.00000000000000E+00
DEBUG_STATS_RL:               GsNm1 (DYNAMICS) S.D.=  0.00000000000000E+00
DEBUG_STATS_RL:    cg2d_b (SOLVE_FOR_PRESSURE)  min= -7.51696131718234E+03
DEBUG_STATS_RL:    cg2d_b (SOLVE_FOR_PRESSURE)  max=  2.21291016221039E+03
DEBUG_STATS_RL:    cg2d_b (SOLVE_FOR_PRESSURE) mean=  3.98093410088525E-13
DEBUG_STATS_RL:    cg2d_b (SOLVE_FOR_PRESSURE) S.D.=  9.35355930257436E+02
 cg2d: Sum(rhs),rhsMax =   7.58074159001865E-15  1.20985040186717E+00
DEBUG_STATS_RL:    cg2d_x (SOLVE_FOR_PRESSURE)  min= -1.39137659518967E+00
DEBUG_STATS_RL:    cg2d_x (SOLVE_FOR_PRESSURE)  max=  3.06244143644399E+00
DEBUG_STATS_RL:    cg2d_x (SOLVE_FOR_PRESSURE) mean= -2.04738907200143E-02
DEBUG_STATS_RL:    cg2d_x (SOLVE_FOR_PRESSURE) S.D.=  7.54254787472799E-01
DEBUG_STATS_RL:          Uvel (THERMODYNAMICS)  min= -4.85747443135409E-02
DEBUG_STATS_RL:          Uvel (THERMODYNAMICS)  max=  6.48566534974196E-02
DEBUG_STATS_RL:          Uvel (THERMODYNAMICS) mean=  2.83347825461196E-03
DEBUG_STATS_RL:          Uvel (THERMODYNAMICS) S.D.=  1.04406948546676E-02
DEBUG_STATS_RL:          Vvel (THERMODYNAMICS)  min= -2.93630589495434E-02
DEBUG_STATS_RL:          Vvel (THERMODYNAMICS)  max=  5.51081422495755E-02
DEBUG_STATS_RL:          Vvel (THERMODYNAMICS) mean=  1.89398823347025E-03
DEBUG_STATS_RL:          Vvel (THERMODYNAMICS) S.D.=  1.13685531752799E-02
DEBUG_STATS_RL:          Wvel (THERMODYNAMICS)  min= -1.01835019199983E-04
DEBUG_STATS_RL:          Wvel (THERMODYNAMICS)  max=  2.18299385766793E-04
DEBUG_STATS_RL:          Wvel (THERMODYNAMICS) mean= -3.58449213338739E-07
DEBUG_STATS_RL:          Wvel (THERMODYNAMICS) S.D.=  2.04428902649864E-05
DEBUG_STATS_RL:         Theta (THERMODYNAMICS)  min= -1.93250363389783E+00
DEBUG_STATS_RL:         Theta (THERMODYNAMICS)  max=  1.32631363173882E+01
DEBUG_STATS_RL:         Theta (THERMODYNAMICS) mean=  2.41867029854828E+00
DEBUG_STATS_RL:         Theta (THERMODYNAMICS) S.D.=  2.57126546321788E+00
DEBUG_STATS_RL:          Salt (THERMODYNAMICS)  min=  2.76143299539290E+01
DEBUG_STATS_RL:          Salt (THERMODYNAMICS)  max=  3.54510577106203E+01
DEBUG_STATS_RL:          Salt (THERMODYNAMICS) mean=  3.39375783473311E+01
DEBUG_STATS_RL:          Salt (THERMODYNAMICS) S.D.=  1.15271478316013E+00
DEBUG_STATS_RL:         GtNm1 (THERMODYNAMICS)  min=  0.00000000000000E+00
DEBUG_STATS_RL:         GtNm1 (THERMODYNAMICS)  max=  0.00000000000000E+00
DEBUG_STATS_RL:         GtNm1 (THERMODYNAMICS) mean=  0.00000000000000E+00
DEBUG_STATS_RL:         GtNm1 (THERMODYNAMICS) S.D.=  0.00000000000000E+00
DEBUG_STATS_RL:         GsNm1 (THERMODYNAMICS)  min=  0.00000000000000E+00
DEBUG_STATS_RL:         GsNm1 (THERMODYNAMICS)  max=  0.00000000000000E+00
DEBUG_STATS_RL:         GsNm1 (THERMODYNAMICS) mean=  0.00000000000000E+00
DEBUG_STATS_RL:         GsNm1 (THERMODYNAMICS) S.D.=  0.00000000000000E+00
(PID.TID 0000.0001)  MDS_WRITE_FIELD: it,rec,kS,kL,kH=       1     4   1   1   1 file=m_sst_step.0000000001
(PID.TID 0000.0001)  MDS_READ_FIELD: opening global file: xx_atemp.effective.0000000001.data
(PID.TID 0000.0001) EXF_SET_FLD: processing field "climsss",  file: SSS_monthly.labsea1979
(PID.TID 0000.0001) EXF_SET_FLD:   myIter, count0, count1:         3      1      2
(PID.TID 0000.0001) EXF_SET_FLD:   first, changed, fac:   F   F    0.49590163934426235
(PID.TID 0000.0001) EXF_SET_FLD: processing field "uwind",  file: u10m.labsea1979
(PID.TID 0000.0001) EXF_SET_FLD:   myIter, count0, count1:         3      1      2
(PID.TID 0000.0001) EXF_SET_FLD:   first, changed, fac:   F   F    0.49590163934426235
(PID.TID 0000.0001) EXF_SET_FLD: processing field "vwind",  file: v10m.labsea1979
(PID.TID 0000.0001) EXF_SET_FLD:   myIter, count0, count1:         3      1      2
(PID.TID 0000.0001) EXF_SET_FLD:   first, changed, fac:   F   F    0.49590163934426235
(PID.TID 0000.0001) EXF_SET_FLD: processing field "atemp",  file: tair.labsea1979
(PID.TID 0000.0001) EXF_SET_FLD:   myIter, count0, count1:         3      1      2
(PID.TID 0000.0001) EXF_SET_FLD:   first, changed, fac:   F   F    0.49590163934426235
(PID.TID 0000.0001) EXF_SET_FLD: processing field "aqh",  file: qa.labsea1979
(PID.TID 0000.0001) EXF_SET_FLD:   myIter, count0, count1:         3      1      2
(PID.TID 0000.0001) EXF_SET_FLD:   first, changed, fac:   F   F    0.49590163934426235
(PID.TID 0000.0001) EXF_SET_FLD: processing field "precip",  file: prate.labsea1979
(PID.TID 0000.0001) EXF_SET_FLD:   myIter, count0, count1:         3      1      2
(PID.TID 0000.0001) EXF_SET_FLD:   first, changed, fac:   F   F    0.49590163934426235
(PID.TID 0000.0001) EXF_SET_FLD: processing field "swdown",  file: fsh.labsea1979
(PID.TID 0000.0001) EXF_SET_FLD:   myIter, count0, count1:         3      1      2
(PID.TID 0000.0001) EXF_SET_FLD:   first, changed, fac:   F   F    0.49590163934426235
(PID.TID 0000.0001) EXF_SET_FLD: processing field "lwdown",  file: flo.labsea1979
(PID.TID 0000.0001) EXF_SET_FLD:   myIter, count0, count1:         3      1      2
(PID.TID 0000.0001) EXF_SET_FLD:   first, changed, fac:   F   F    0.49590163934426235
DEBUG_STATS_RL: Uice pre  iter (SEAICE_LSR  1)  min= -4.89522325593677E-03
DEBUG_STATS_RL: Uice pre  iter (SEAICE_LSR  1)  max=  1.61355517756086E-01
DEBUG_STATS_RL: Uice pre  iter (SEAICE_LSR  1) mean=  5.67051326032453E-02
DEBUG_STATS_RL: Uice pre  iter (SEAICE_LSR  1) S.D.=  5.73816154996906E-02
DEBUG_STATS_RL: Vice pre  iter (SEAICE_LSR  1)  min= -1.51246540995874E-01
DEBUG_STATS_RL: Vice pre  iter (SEAICE_LSR  1)  max=  8.91076561218485E-02
DEBUG_STATS_RL: Vice pre  iter (SEAICE_LSR  1) mean= -1.97403473751720E-02
DEBUG_STATS_RL: Vice pre  iter (SEAICE_LSR  1) S.D.=  3.94189649054329E-02
DEBUG_STATS_RL: Uice pre  iter (SEAICE_LSR  2)  min= -5.42054480413814E-03
DEBUG_STATS_RL: Uice pre  iter (SEAICE_LSR  2)  max=  2.02641844081809E-01
DEBUG_STATS_RL: Uice pre  iter (SEAICE_LSR  2) mean=  6.47762112257923E-02
DEBUG_STATS_RL: Uice pre  iter (SEAICE_LSR  2) S.D.=  6.71608790534735E-02
DEBUG_STATS_RL: Vice pre  iter (SEAICE_LSR  2)  min= -1.45601126352225E-01
DEBUG_STATS_RL: Vice pre  iter (SEAICE_LSR  2)  max=  1.04145470460115E-01
DEBUG_STATS_RL: Vice pre  iter (SEAICE_LSR  2) mean= -2.31827417424612E-02
DEBUG_STATS_RL: Vice pre  iter (SEAICE_LSR  2) S.D.=  4.33109039397189E-02
DEBUG_STATS_RL:                EtaN (DYNAMICS)  min= -1.41751558253155E-01
DEBUG_STATS_RL:                EtaN (DYNAMICS)  max=  3.11997375243896E-01
DEBUG_STATS_RL:                EtaN (DYNAMICS) mean= -2.08585218631713E-03
DEBUG_STATS_RL:                EtaN (DYNAMICS) S.D.=  7.68424535915073E-02
DEBUG_STATS_RL:                Uvel (DYNAMICS)  min= -4.85747443135409E-02
DEBUG_STATS_RL:                Uvel (DYNAMICS)  max=  6.48566534974196E-02
DEBUG_STATS_RL:                Uvel (DYNAMICS) mean=  2.83347825461196E-03
DEBUG_STATS_RL:                Uvel (DYNAMICS) S.D.=  1.04406948546676E-02
DEBUG_STATS_RL:                Vvel (DYNAMICS)  min= -2.93630589495434E-02
DEBUG_STATS_RL:                Vvel (DYNAMICS)  max=  5.51081422495755E-02
DEBUG_STATS_RL:                Vvel (DYNAMICS) mean=  1.89398823347025E-03
DEBUG_STATS_RL:                Vvel (DYNAMICS) S.D.=  1.13685531752799E-02
DEBUG_STATS_RL:                Wvel (DYNAMICS)  min= -1.01835019199983E-04
DEBUG_STATS_RL:                Wvel (DYNAMICS)  max=  2.18299385766793E-04
DEBUG_STATS_RL:                Wvel (DYNAMICS) mean= -3.58449213338739E-07
DEBUG_STATS_RL:                Wvel (DYNAMICS) S.D.=  2.04428902649864E-05
DEBUG_STATS_RL:               Theta (DYNAMICS)  min= -1.93250363389783E+00
DEBUG_STATS_RL:               Theta (DYNAMICS)  max=  1.32631363173882E+01
DEBUG_STATS_RL:               Theta (DYNAMICS) mean=  2.41867029854828E+00
DEBUG_STATS_RL:               Theta (DYNAMICS) S.D.=  2.57126546321788E+00
DEBUG_STATS_RL:                Salt (DYNAMICS)  min=  2.76143299539290E+01
DEBUG_STATS_RL:                Salt (DYNAMICS)  max=  3.54510577106203E+01
DEBUG_STATS_RL:                Salt (DYNAMICS) mean=  3.39375783473311E+01
DEBUG_STATS_RL:                Salt (DYNAMICS) S.D.=  1.15271478316013E+00
DEBUG_STATS_RL:                  Gu (DYNAMICS)  min= -3.31660092548369E-02
DEBUG_STATS_RL:                  Gu (DYNAMICS)  max=  7.71641715782447E-02
DEBUG_STATS_RL:                  Gu (DYNAMICS) mean=  1.79729889204916E-03
DEBUG_STATS_RL:                  Gu (DYNAMICS) S.D.=  1.23549872720695E-02
DEBUG_STATS_RL:                  Gv (DYNAMICS)  min= -6.51102265934603E-02
DEBUG_STATS_RL:                  Gv (DYNAMICS)  max=  4.74792371894016E-02
DEBUG_STATS_RL:                  Gv (DYNAMICS) mean= -3.61268002201609E-03
DEBUG_STATS_RL:                  Gv (DYNAMICS) S.D.=  1.25565096773171E-02
DEBUG_STATS_RL:               GuNm1 (DYNAMICS)  min= -2.57489899416699E-07
DEBUG_STATS_RL:               GuNm1 (DYNAMICS)  max=  1.89368528479185E-07
DEBUG_STATS_RL:               GuNm1 (DYNAMICS) mean=  4.40117073826462E-12
DEBUG_STATS_RL:               GuNm1 (DYNAMICS) S.D.=  4.68821385830658E-08
DEBUG_STATS_RL:               GvNm1 (DYNAMICS)  min= -1.09603640235136E-07
DEBUG_STATS_RL:               GvNm1 (DYNAMICS)  max=  9.62789262154784E-08
DEBUG_STATS_RL:               GvNm1 (DYNAMICS) mean= -8.49526391149741E-10
DEBUG_STATS_RL:               GvNm1 (DYNAMICS) S.D.=  2.55629549792551E-08
DEBUG_STATS_RL:               GtNm1 (DYNAMICS)  min=  0.00000000000000E+00
DEBUG_STATS_RL:               GtNm1 (DYNAMICS)  max=  0.00000000000000E+00
DEBUG_STATS_RL:               GtNm1 (DYNAMICS) mean=  0.00000000000000E+00
DEBUG_STATS_RL:               GtNm1 (DYNAMICS) S.D.=  0.00000000000000E+00
DEBUG_STATS_RL:               GsNm1 (DYNAMICS)  min=  0.00000000000000E+00
DEBUG_STATS_RL:               GsNm1 (DYNAMICS)  max=  0.00000000000000E+00
DEBUG_STATS_RL:               GsNm1 (DYNAMICS) mean=  0.00000000000000E+00
DEBUG_STATS_RL:               GsNm1 (DYNAMICS) S.D.=  0.00000000000000E+00
DEBUG_STATS_RL:    cg2d_b (SOLVE_FOR_PRESSURE)  min= -7.48820843436679E+03
DEBUG_STATS_RL:    cg2d_b (SOLVE_FOR_PRESSURE)  max=  2.19603477106440E+03
DEBUG_STATS_RL:    cg2d_b (SOLVE_FOR_PRESSURE) mean=  3.44850074422235E-13
DEBUG_STATS_RL:    cg2d_b (SOLVE_FOR_PRESSURE) S.D.=  9.20730314173922E+02
 cg2d: Sum(rhs),rhsMax =   7.02216063075412E-15  1.20522264267547E+00
DEBUG_STATS_RL:    cg2d_x (SOLVE_FOR_PRESSURE)  min= -1.31033012419091E+00
DEBUG_STATS_RL:    cg2d_x (SOLVE_FOR_PRESSURE)  max=  3.14089981024982E+00
DEBUG_STATS_RL:    cg2d_x (SOLVE_FOR_PRESSURE) mean= -2.47876044023059E-02
DEBUG_STATS_RL:    cg2d_x (SOLVE_FOR_PRESSURE) S.D.=  7.62604990071629E-01
DEBUG_STATS_RL:          Uvel (THERMODYNAMICS)  min= -4.51228100181783E-02
DEBUG_STATS_RL:          Uvel (THERMODYNAMICS)  max=  8.23946614698084E-02
DEBUG_STATS_RL:          Uvel (THERMODYNAMICS) mean=  4.46006533353419E-03
DEBUG_STATS_RL:          Uvel (THERMODYNAMICS) S.D.=  1.25503402183578E-02
DEBUG_STATS_RL:          Vvel (THERMODYNAMICS)  min= -5.43131072024148E-02
DEBUG_STATS_RL:          Vvel (THERMODYNAMICS)  max=  6.64710959483295E-02
DEBUG_STATS_RL:          Vvel (THERMODYNAMICS) mean=  9.07394962432619E-04
DEBUG_STATS_RL:          Vvel (THERMODYNAMICS) S.D.=  1.42265213438938E-02
DEBUG_STATS_RL:          Wvel (THERMODYNAMICS)  min= -1.50094143875158E-04
DEBUG_STATS_RL:          Wvel (THERMODYNAMICS)  max=  2.67848367720715E-04
DEBUG_STATS_RL:          Wvel (THERMODYNAMICS) mean= -2.83768310638758E-07
DEBUG_STATS_RL:          Wvel (THERMODYNAMICS) S.D.=  2.30755404976212E-05
DEBUG_STATS_RL:         Theta (THERMODYNAMICS)  min= -1.95323356757650E+00
DEBUG_STATS_RL:         Theta (THERMODYNAMICS)  max=  1.32611729219858E+01
DEBUG_STATS_RL:         Theta (THERMODYNAMICS) mean=  2.41624287435038E+00
DEBUG_STATS_RL:         Theta (THERMODYNAMICS) S.D.=  2.57467251754838E+00
DEBUG_STATS_RL:          Salt (THERMODYNAMICS)  min=  2.76192995644599E+01
DEBUG_STATS_RL:          Salt (THERMODYNAMICS)  max=  3.54511687806856E+01
DEBUG_STATS_RL:          Salt (THERMODYNAMICS) mean=  3.39368869963869E+01
DEBUG_STATS_RL:          Salt (THERMODYNAMICS) S.D.=  1.15395653842057E+00
DEBUG_STATS_RL:         GtNm1 (THERMODYNAMICS)  min=  0.00000000000000E+00
DEBUG_STATS_RL:         GtNm1 (THERMODYNAMICS)  max=  0.00000000000000E+00
DEBUG_STATS_RL:         GtNm1 (THERMODYNAMICS) mean=  0.00000000000000E+00
DEBUG_STATS_RL:         GtNm1 (THERMODYNAMICS) S.D.=  0.00000000000000E+00
DEBUG_STATS_RL:         GsNm1 (THERMODYNAMICS)  min=  0.00000000000000E+00
DEBUG_STATS_RL:         GsNm1 (THERMODYNAMICS)  max=  0.00000000000000E+00
DEBUG_STATS_RL:         GsNm1 (THERMODYNAMICS) mean=  0.00000000000000E+00
DEBUG_STATS_RL:         GsNm1 (THERMODYNAMICS) S.D.=  0.00000000000000E+00
(PID.TID 0000.0001)  MDS_WRITE_FIELD: it,rec,kS,kL,kH=       1     5   1   1   1 file=m_sst_step.0000000001
(PID.TID 0000.0001)  MDS_READ_FIELD: opening global file: xx_atemp.effective.0000000001.data
(PID.TID 0000.0001) EXF_SET_FLD: processing field "climsss",  file: SSS_monthly.labsea1979
(PID.TID 0000.0001) EXF_SET_FLD:   myIter, count0, count1:         4      1      2
(PID.TID 0000.0001) EXF_SET_FLD:   first, changed, fac:   F   F    0.49453551912568305
(PID.TID 0000.0001) EXF_SET_FLD: processing field "uwind",  file: u10m.labsea1979
(PID.TID 0000.0001) EXF_SET_FLD:   myIter, count0, count1:         4      1      2
(PID.TID 0000.0001) EXF_SET_FLD:   first, changed, fac:   F   F    0.49453551912568305
(PID.TID 0000.0001) EXF_SET_FLD: processing field "vwind",  file: v10m.labsea1979
(PID.TID 0000.0001) EXF_SET_FLD:   myIter, count0, count1:         4      1      2
(PID.TID 0000.0001) EXF_SET_FLD:   first, changed, fac:   F   F    0.49453551912568305
(PID.TID 0000.0001) EXF_SET_FLD: processing field "atemp",  file: tair.labsea1979
(PID.TID 0000.0001) EXF_SET_FLD:   myIter, count0, count1:         4      1      2
(PID.TID 0000.0001) EXF_SET_FLD:   first, changed, fac:   F   F    0.49453551912568305
(PID.TID 0000.0001) EXF_SET_FLD: processing field "aqh",  file: qa.labsea1979
(PID.TID 0000.0001) EXF_SET_FLD:   myIter, count0, count1:         4      1      2
(PID.TID 0000.0001) EXF_SET_FLD:   first, changed, fac:   F   F    0.49453551912568305
(PID.TID 0000.0001) EXF_SET_FLD: processing field "precip",  file: prate.labsea1979
(PID.TID 0000.0001) EXF_SET_FLD:   myIter, count0, count1:         4      1      2
(PID.TID 0000.0001) EXF_SET_FLD:   first, changed, fac:   F   F    0.49453551912568305
(PID.TID 0000.0001) EXF_SET_FLD: processing field "swdown",  file: fsh.labsea1979
(PID.TID 0000.0001) EXF_SET_FLD:   myIter, count0, count1:         4      1      2
(PID.TID 0000.0001) EXF_SET_FLD:   first, changed, fac:   F   F    0.49453551912568305
(PID.TID 0000.0001) EXF_SET_FLD: processing field "lwdown",  file: flo.labsea1979
(PID.TID 0000.0001) EXF_SET_FLD:   myIter, count0, count1:         4      1      2
(PID.TID 0000.0001) EXF_SET_FLD:   first, changed, fac:   F   F    0.49453551912568305
DEBUG_STATS_RL: Uice pre  iter (SEAICE_LSR  1)  min= -6.64884179980818E-03
DEBUG_STATS_RL: Uice pre  iter (SEAICE_LSR  1)  max=  1.92542735136310E-01
DEBUG_STATS_RL: Uice pre  iter (SEAICE_LSR  1) mean=  6.47686246162944E-02
DEBUG_STATS_RL: Uice pre  iter (SEAICE_LSR  1) S.D.=  6.59732959909969E-02
DEBUG_STATS_RL: Vice pre  iter (SEAICE_LSR  1)  min= -1.58345599530547E-01
DEBUG_STATS_RL: Vice pre  iter (SEAICE_LSR  1)  max=  1.04255589228155E-01
DEBUG_STATS_RL: Vice pre  iter (SEAICE_LSR  1) mean= -2.61122078441529E-02
DEBUG_STATS_RL: Vice pre  iter (SEAICE_LSR  1) S.D.=  4.54292968509590E-02
DEBUG_STATS_RL: Uice pre  iter (SEAICE_LSR  2)  min= -7.39582706165008E-03
DEBUG_STATS_RL: Uice pre  iter (SEAICE_LSR  2)  max=  2.22032103672184E-01
DEBUG_STATS_RL: Uice pre  iter (SEAICE_LSR  2) mean=  6.99701895633399E-02
DEBUG_STATS_RL: Uice pre  iter (SEAICE_LSR  2) S.D.=  7.26089122439799E-02
DEBUG_STATS_RL: Vice pre  iter (SEAICE_LSR  2)  min= -1.71770480186515E-01
DEBUG_STATS_RL: Vice pre  iter (SEAICE_LSR  2)  max=  1.08496327276558E-01
DEBUG_STATS_RL: Vice pre  iter (SEAICE_LSR  2) mean= -3.10609864805593E-02
DEBUG_STATS_RL: Vice pre  iter (SEAICE_LSR  2) S.D.=  4.99863315290070E-02
DEBUG_STATS_RL:                EtaN (DYNAMICS)  min= -1.33494653835824E-01
DEBUG_STATS_RL:                EtaN (DYNAMICS)  max=  3.19990607833430E-01
DEBUG_STATS_RL:                EtaN (DYNAMICS) mean= -2.52532747894229E-03
DEBUG_STATS_RL:                EtaN (DYNAMICS) S.D.=  7.76931608940491E-02
DEBUG_STATS_RL:                Uvel (DYNAMICS)  min= -4.51228100181783E-02
DEBUG_STATS_RL:                Uvel (DYNAMICS)  max=  8.23946614698084E-02
DEBUG_STATS_RL:                Uvel (DYNAMICS) mean=  4.46006533353419E-03
DEBUG_STATS_RL:                Uvel (DYNAMICS) S.D.=  1.25503402183578E-02
DEBUG_STATS_RL:                Vvel (DYNAMICS)  min= -5.43131072024148E-02
DEBUG_STATS_RL:                Vvel (DYNAMICS)  max=  6.64710959483295E-02
DEBUG_STATS_RL:                Vvel (DYNAMICS) mean=  9.07394962432619E-04
DEBUG_STATS_RL:                Vvel (DYNAMICS) S.D.=  1.42265213438938E-02
DEBUG_STATS_RL:                Wvel (DYNAMICS)  min= -1.50094143875158E-04
DEBUG_STATS_RL:                Wvel (DYNAMICS)  max=  2.67848367720715E-04
DEBUG_STATS_RL:                Wvel (DYNAMICS) mean= -2.83768310638758E-07
DEBUG_STATS_RL:                Wvel (DYNAMICS) S.D.=  2.30755404976212E-05
DEBUG_STATS_RL:               Theta (DYNAMICS)  min= -1.95323356757650E+00
DEBUG_STATS_RL:               Theta (DYNAMICS)  max=  1.32611729219858E+01
DEBUG_STATS_RL:               Theta (DYNAMICS) mean=  2.41624287435038E+00
DEBUG_STATS_RL:               Theta (DYNAMICS) S.D.=  2.57467251754838E+00
DEBUG_STATS_RL:                Salt (DYNAMICS)  min=  2.76192995644599E+01
DEBUG_STATS_RL:                Salt (DYNAMICS)  max=  3.54511687806856E+01
DEBUG_STATS_RL:                Salt (DYNAMICS) mean=  3.39368869963869E+01
DEBUG_STATS_RL:                Salt (DYNAMICS) S.D.=  1.15395653842057E+00
DEBUG_STATS_RL:                  Gu (DYNAMICS)  min= -3.06969616936034E-02
DEBUG_STATS_RL:                  Gu (DYNAMICS)  max=  9.72073114926335E-02
DEBUG_STATS_RL:                  Gu (DYNAMICS) mean=  3.10151082320076E-03
DEBUG_STATS_RL:                  Gu (DYNAMICS) S.D.=  1.41052551008586E-02
DEBUG_STATS_RL:                  Gv (DYNAMICS)  min= -9.53132079808829E-02
DEBUG_STATS_RL:                  Gv (DYNAMICS)  max=  5.33682068181777E-02
DEBUG_STATS_RL:                  Gv (DYNAMICS) mean= -5.06243016749519E-03
DEBUG_STATS_RL:                  Gv (DYNAMICS) S.D.=  1.53588463678665E-02
DEBUG_STATS_RL:               GuNm1 (DYNAMICS)  min= -2.35357489189929E-07
DEBUG_STATS_RL:               GuNm1 (DYNAMICS)  max=  1.71456102315481E-07
DEBUG_STATS_RL:               GuNm1 (DYNAMICS) mean= -2.01481983923372E-09
DEBUG_STATS_RL:               GuNm1 (DYNAMICS) S.D.=  4.45062316312371E-08
DEBUG_STATS_RL:               GvNm1 (DYNAMICS)  min= -1.49109605789106E-07
DEBUG_STATS_RL:               GvNm1 (DYNAMICS)  max=  1.05797935490753E-07
DEBUG_STATS_RL:               GvNm1 (DYNAMICS) mean= -1.04937902583167E-09
DEBUG_STATS_RL:               GvNm1 (DYNAMICS) S.D.=  3.09410614929941E-08
DEBUG_STATS_RL:               GtNm1 (DYNAMICS)  min=  0.00000000000000E+00
DEBUG_STATS_RL:               GtNm1 (DYNAMICS)  max=  0.00000000000000E+00
DEBUG_STATS_RL:               GtNm1 (DYNAMICS) mean=  0.00000000000000E+00
DEBUG_STATS_RL:               GtNm1 (DYNAMICS) S.D.=  0.00000000000000E+00
DEBUG_STATS_RL:               GsNm1 (DYNAMICS)  min=  0.00000000000000E+00
DEBUG_STATS_RL:               GsNm1 (DYNAMICS)  max=  0.00000000000000E+00
DEBUG_STATS_RL:               GsNm1 (DYNAMICS) mean=  0.00000000000000E+00
DEBUG_STATS_RL:               GsNm1 (DYNAMICS) S.D.=  0.00000000000000E+00
DEBUG_STATS_RL:    cg2d_b (SOLVE_FOR_PRESSURE)  min= -7.47095948274211E+03
DEBUG_STATS_RL:    cg2d_b (SOLVE_FOR_PRESSURE)  max=  2.18029189648771E+03
DEBUG_STATS_RL:    cg2d_b (SOLVE_FOR_PRESSURE) mean=  4.61000126961153E-13
DEBUG_STATS_RL:    cg2d_b (SOLVE_FOR_PRESSURE) S.D.=  9.11464014140619E+02
 cg2d: Sum(rhs),rhsMax =   7.54257767354716E-15  1.20244643428828E+00
DEBUG_STATS_RL:    cg2d_x (SOLVE_FOR_PRESSURE)  min= -1.27317826454302E+00
DEBUG_STATS_RL:    cg2d_x (SOLVE_FOR_PRESSURE)  max=  3.19622316797774E+00
DEBUG_STATS_RL:    cg2d_x (SOLVE_FOR_PRESSURE) mean= -2.95294169356598E-02
DEBUG_STATS_RL:    cg2d_x (SOLVE_FOR_PRESSURE) S.D.=  7.40273720372498E-01
DEBUG_STATS_RL:          Uvel (THERMODYNAMICS)  min= -3.64296443204365E-02
DEBUG_STATS_RL:          Uvel (THERMODYNAMICS)  max=  8.91662112566484E-02
DEBUG_STATS_RL:          Uvel (THERMODYNAMICS) mean=  5.18186102507367E-03
DEBUG_STATS_RL:          Uvel (THERMODYNAMICS) S.D.=  1.36791834404009E-02
DEBUG_STATS_RL:          Vvel (THERMODYNAMICS)  min= -8.48427067731261E-02
DEBUG_STATS_RL:          Vvel (THERMODYNAMICS)  max=  7.15709637633441E-02
DEBUG_STATS_RL:          Vvel (THERMODYNAMICS) mean= -6.25663991221341E-04
DEBUG_STATS_RL:          Vvel (THERMODYNAMICS) S.D.=  1.65568599028734E-02
DEBUG_STATS_RL:          Wvel (THERMODYNAMICS)  min= -2.02998023749462E-04
DEBUG_STATS_RL:          Wvel (THERMODYNAMICS)  max=  3.07634744219635E-04
DEBUG_STATS_RL:          Wvel (THERMODYNAMICS) mean= -2.14485636605771E-07
DEBUG_STATS_RL:          Wvel (THERMODYNAMICS) S.D.=  2.56514188295248E-05
DEBUG_STATS_RL:         Theta (THERMODYNAMICS)  min= -1.95891909892372E+00
DEBUG_STATS_RL:         Theta (THERMODYNAMICS)  max=  1.32575107273067E+01
DEBUG_STATS_RL:         Theta (THERMODYNAMICS) mean=  2.41560973729717E+00
DEBUG_STATS_RL:         Theta (THERMODYNAMICS) S.D.=  2.57506629522922E+00
DEBUG_STATS_RL:          Salt (THERMODYNAMICS)  min=  2.76241835718781E+01
DEBUG_STATS_RL:          Salt (THERMODYNAMICS)  max=  3.54512322319690E+01
DEBUG_STATS_RL:          Salt (THERMODYNAMICS) mean=  3.39367610972834E+01
DEBUG_STATS_RL:          Salt (THERMODYNAMICS) S.D.=  1.15400523729607E+00
DEBUG_STATS_RL:         GtNm1 (THERMODYNAMICS)  min=  0.00000000000000E+00
DEBUG_STATS_RL:         GtNm1 (THERMODYNAMICS)  max=  0.00000000000000E+00
DEBUG_STATS_RL:         GtNm1 (THERMODYNAMICS) mean=  0.00000000000000E+00
DEBUG_STATS_RL:         GtNm1 (THERMODYNAMICS) S.D.=  0.00000000000000E+00
DEBUG_STATS_RL:         GsNm1 (THERMODYNAMICS)  min=  0.00000000000000E+00
DEBUG_STATS_RL:         GsNm1 (THERMODYNAMICS)  max=  0.00000000000000E+00
DEBUG_STATS_RL:         GsNm1 (THERMODYNAMICS) mean=  0.00000000000000E+00
DEBUG_STATS_RL:         GsNm1 (THERMODYNAMICS) S.D.=  0.00000000000000E+00
(PID.TID 0000.0001)  MDS_WRITE_FIELD: it,rec,kS,kL,kH=       1     6   1   1   1 file=m_sst_step.0000000001
(PID.TID 0000.0001)  MDS_READ_FIELD: opening global file: xx_atemp.effective.0000000001.data
(PID.TID 0000.0001) EXF_SET_FLD: processing field "climsss",  file: SSS_monthly.labsea1979
(PID.TID 0000.0001) EXF_SET_FLD:   myIter, count0, count1:         5      1      2
(PID.TID 0000.0001) EXF_SET_FLD:   first, changed, fac:   F   F    0.49316939890710387
(PID.TID 0000.0001) EXF_SET_FLD: processing field "uwind",  file: u10m.labsea1979
(PID.TID 0000.0001) EXF_SET_FLD:   myIter, count0, count1:         5      1      2
(PID.TID 0000.0001) EXF_SET_FLD:   first, changed, fac:   F   F    0.49316939890710387
(PID.TID 0000.0001) EXF_SET_FLD: processing field "vwind",  file: v10m.labsea1979
(PID.TID 0000.0001) EXF_SET_FLD:   myIter, count0, count1:         5      1      2
(PID.TID 0000.0001) EXF_SET_FLD:   first, changed, fac:   F   F    0.49316939890710387
(PID.TID 0000.0001) EXF_SET_FLD: processing field "atemp",  file: tair.labsea1979
(PID.TID 0000.0001) EXF_SET_FLD:   myIter, count0, count1:         5      1      2
(PID.TID 0000.0001) EXF_SET_FLD:   first, changed, fac:   F   F    0.49316939890710387
(PID.TID 0000.0001) EXF_SET_FLD: processing field "aqh",  file: qa.labsea1979
(PID.TID 0000.0001) EXF_SET_FLD:   myIter, count0, count1:         5      1      2
(PID.TID 0000.0001) EXF_SET_FLD:   first, changed, fac:   F   F    0.49316939890710387
(PID.TID 0000.0001) EXF_SET_FLD: processing field "precip",  file: prate.labsea1979
(PID.TID 0000.0001) EXF_SET_FLD:   myIter, count0, count1:         5      1      2
(PID.TID 0000.0001) EXF_SET_FLD:   first, changed, fac:   F   F    0.49316939890710387
(PID.TID 0000.0001) EXF_SET_FLD: processing field "swdown",  file: fsh.labsea1979
(PID.TID 0000.0001) EXF_SET_FLD:   myIter, count0, count1:         5      1      2
(PID.TID 0000.0001) EXF_SET_FLD:   first, changed, fac:   F   F    0.49316939890710387
(PID.TID 0000.0001) EXF_SET_FLD: processing field "lwdown",  file: flo.labsea1979
(PID.TID 0000.0001) EXF_SET_FLD:   myIter, count0, count1:         5      1      2
(PID.TID 0000.0001) EXF_SET_FLD:   first, changed, fac:   F   F    0.49316939890710387
DEBUG_STATS_RL: Uice pre  iter (SEAICE_LSR  1)  min= -9.02121933421105E-03
DEBUG_STATS_RL: Uice pre  iter (SEAICE_LSR  1)  max=  2.19445684647109E-01
DEBUG_STATS_RL: Uice pre  iter (SEAICE_LSR  1) mean=  6.96639305503695E-02
DEBUG_STATS_RL: Uice pre  iter (SEAICE_LSR  1) S.D.=  7.25590715279082E-02
DEBUG_STATS_RL: Vice pre  iter (SEAICE_LSR  1)  min= -1.73112057819557E-01
DEBUG_STATS_RL: Vice pre  iter (SEAICE_LSR  1)  max=  1.05174802576007E-01
DEBUG_STATS_RL: Vice pre  iter (SEAICE_LSR  1) mean= -3.44957645444130E-02
DEBUG_STATS_RL: Vice pre  iter (SEAICE_LSR  1) S.D.=  5.17027322832953E-02
DEBUG_STATS_RL: Uice pre  iter (SEAICE_LSR  2)  min= -9.93295031144052E-03
DEBUG_STATS_RL: Uice pre  iter (SEAICE_LSR  2)  max=  2.37649472779151E-01
DEBUG_STATS_RL: Uice pre  iter (SEAICE_LSR  2) mean=  7.08960993524831E-02
DEBUG_STATS_RL: Uice pre  iter (SEAICE_LSR  2) S.D.=  7.51814019582419E-02
DEBUG_STATS_RL: Vice pre  iter (SEAICE_LSR  2)  min= -1.73458139241622E-01
DEBUG_STATS_RL: Vice pre  iter (SEAICE_LSR  2)  max=  1.02503634704981E-01
DEBUG_STATS_RL: Vice pre  iter (SEAICE_LSR  2) mean= -3.89801386757843E-02
DEBUG_STATS_RL: Vice pre  iter (SEAICE_LSR  2) S.D.=  5.44920749386259E-02
DEBUG_STATS_RL:                EtaN (DYNAMICS)  min= -1.29709672821124E-01
DEBUG_STATS_RL:                EtaN (DYNAMICS)  max=  3.25626876398564E-01
DEBUG_STATS_RL:                EtaN (DYNAMICS) mean= -3.00841690122456E-03
DEBUG_STATS_RL:                EtaN (DYNAMICS) S.D.=  7.54180814593605E-02
DEBUG_STATS_RL:                Uvel (DYNAMICS)  min= -3.64296443204365E-02
DEBUG_STATS_RL:                Uvel (DYNAMICS)  max=  8.91662112566484E-02
DEBUG_STATS_RL:                Uvel (DYNAMICS) mean=  5.18186102507367E-03
DEBUG_STATS_RL:                Uvel (DYNAMICS) S.D.=  1.36791834404009E-02
DEBUG_STATS_RL:                Vvel (DYNAMICS)  min= -8.48427067731261E-02
DEBUG_STATS_RL:                Vvel (DYNAMICS)  max=  7.15709637633441E-02
DEBUG_STATS_RL:                Vvel (DYNAMICS) mean= -6.25663991221341E-04
DEBUG_STATS_RL:                Vvel (DYNAMICS) S.D.=  1.65568599028734E-02
DEBUG_STATS_RL:                Wvel (DYNAMICS)  min= -2.02998023749462E-04
DEBUG_STATS_RL:                Wvel (DYNAMICS)  max=  3.07634744219635E-04
DEBUG_STATS_RL:                Wvel (DYNAMICS) mean= -2.14485636605771E-07
DEBUG_STATS_RL:                Wvel (DYNAMICS) S.D.=  2.56514188295248E-05
DEBUG_STATS_RL:               Theta (DYNAMICS)  min= -1.95891909892372E+00
DEBUG_STATS_RL:               Theta (DYNAMICS)  max=  1.32575107273067E+01
DEBUG_STATS_RL:               Theta (DYNAMICS) mean=  2.41560973729717E+00
DEBUG_STATS_RL:               Theta (DYNAMICS) S.D.=  2.57506629522922E+00
DEBUG_STATS_RL:                Salt (DYNAMICS)  min=  2.76241835718781E+01
DEBUG_STATS_RL:                Salt (DYNAMICS)  max=  3.54512322319690E+01
DEBUG_STATS_RL:                Salt (DYNAMICS) mean=  3.39367610972834E+01
DEBUG_STATS_RL:                Salt (DYNAMICS) S.D.=  1.15400523729607E+00
DEBUG_STATS_RL:                  Gu (DYNAMICS)  min= -3.40661284863418E-02
DEBUG_STATS_RL:                  Gu (DYNAMICS)  max=  1.09592409505600E-01
DEBUG_STATS_RL:                  Gu (DYNAMICS) mean=  3.43340148234458E-03
DEBUG_STATS_RL:                  Gu (DYNAMICS) S.D.=  1.52106643070569E-02
DEBUG_STATS_RL:                  Gv (DYNAMICS)  min= -1.19743996000567E-01
DEBUG_STATS_RL:                  Gv (DYNAMICS)  max=  5.31755908727335E-02
DEBUG_STATS_RL:                  Gv (DYNAMICS) mean= -6.43607759841724E-03
DEBUG_STATS_RL:                  Gv (DYNAMICS) S.D.=  1.74595586592761E-02
DEBUG_STATS_RL:               GuNm1 (DYNAMICS)  min= -2.94347299884317E-07
DEBUG_STATS_RL:               GuNm1 (DYNAMICS)  max=  1.78770581560366E-07
DEBUG_STATS_RL:               GuNm1 (DYNAMICS) mean= -3.06311171947324E-09
DEBUG_STATS_RL:               GuNm1 (DYNAMICS) S.D.=  4.19614199162927E-08
DEBUG_STATS_RL:               GvNm1 (DYNAMICS)  min= -1.82273635415882E-07
DEBUG_STATS_RL:               GvNm1 (DYNAMICS)  max=  1.24273330980273E-07
DEBUG_STATS_RL:               GvNm1 (DYNAMICS) mean= -1.05360009952014E-09
DEBUG_STATS_RL:               GvNm1 (DYNAMICS) S.D.=  3.58773704869281E-08
DEBUG_STATS_RL:               GtNm1 (DYNAMICS)  min=  0.00000000000000E+00
DEBUG_STATS_RL:               GtNm1 (DYNAMICS)  max=  0.00000000000000E+00
DEBUG_STATS_RL:               GtNm1 (DYNAMICS) mean=  0.00000000000000E+00
DEBUG_STATS_RL:               GtNm1 (DYNAMICS) S.D.=  0.00000000000000E+00
DEBUG_STATS_RL:               GsNm1 (DYNAMICS)  min=  0.00000000000000E+00
DEBUG_STATS_RL:               GsNm1 (DYNAMICS)  max=  0.00000000000000E+00
DEBUG_STATS_RL:               GsNm1 (DYNAMICS) mean=  0.00000000000000E+00
DEBUG_STATS_RL:               GsNm1 (DYNAMICS) S.D.=  0.00000000000000E+00
DEBUG_STATS_RL:    cg2d_b (SOLVE_FOR_PRESSURE)  min= -7.45833771571482E+03
DEBUG_STATS_RL:    cg2d_b (SOLVE_FOR_PRESSURE)  max=  2.17494903027728E+03
DEBUG_STATS_RL:    cg2d_b (SOLVE_FOR_PRESSURE) mean=  5.64834105413562E-13
DEBUG_STATS_RL:    cg2d_b (SOLVE_FOR_PRESSURE) S.D.=  9.06377010650348E+02
 cg2d: Sum(rhs),rhsMax =   1.28161370405167E-14  1.20041496847838E+00
DEBUG_STATS_RL:    cg2d_x (SOLVE_FOR_PRESSURE)  min= -1.23196163368046E+00
DEBUG_STATS_RL:    cg2d_x (SOLVE_FOR_PRESSURE)  max=  3.23727429689956E+00
DEBUG_STATS_RL:    cg2d_x (SOLVE_FOR_PRESSURE) mean= -3.45194761147980E-02
DEBUG_STATS_RL:    cg2d_x (SOLVE_FOR_PRESSURE) S.D.=  7.10912240392293E-01
DEBUG_STATS_RL:          Uvel (THERMODYNAMICS)  min= -3.59096386964123E-02
DEBUG_STATS_RL:          Uvel (THERMODYNAMICS)  max=  1.01288605318195E-01
DEBUG_STATS_RL:          Uvel (THERMODYNAMICS) mean=  5.06442107693810E-03
DEBUG_STATS_RL:          Uvel (THERMODYNAMICS) S.D.=  1.40087544095324E-02
DEBUG_STATS_RL:          Vvel (THERMODYNAMICS)  min= -1.10756263988807E-01
DEBUG_STATS_RL:          Vvel (THERMODYNAMICS)  max=  7.07208418107743E-02
DEBUG_STATS_RL:          Vvel (THERMODYNAMICS) mean= -2.17557054826053E-03
DEBUG_STATS_RL:          Vvel (THERMODYNAMICS) S.D.=  1.80912833065971E-02
DEBUG_STATS_RL:          Wvel (THERMODYNAMICS)  min= -2.43811460414300E-04
DEBUG_STATS_RL:          Wvel (THERMODYNAMICS)  max=  3.28816353261803E-04
DEBUG_STATS_RL:          Wvel (THERMODYNAMICS) mean= -1.37923543343230E-07
DEBUG_STATS_RL:          Wvel (THERMODYNAMICS) S.D.=  2.75149300864473E-05
DEBUG_STATS_RL:         Theta (THERMODYNAMICS)  min= -1.96015217723712E+00
DEBUG_STATS_RL:         Theta (THERMODYNAMICS)  max=  1.32512671183370E+01
DEBUG_STATS_RL:         Theta (THERMODYNAMICS) mean=  2.41531606071968E+00
DEBUG_STATS_RL:         Theta (THERMODYNAMICS) S.D.=  2.57483151675911E+00
DEBUG_STATS_RL:          Salt (THERMODYNAMICS)  min=  2.76290307531745E+01
DEBUG_STATS_RL:          Salt (THERMODYNAMICS)  max=  3.54512307060718E+01
DEBUG_STATS_RL:          Salt (THERMODYNAMICS) mean=  3.39367446276245E+01
DEBUG_STATS_RL:          Salt (THERMODYNAMICS) S.D.=  1.15382313156637E+00
DEBUG_STATS_RL:         GtNm1 (THERMODYNAMICS)  min=  0.00000000000000E+00
DEBUG_STATS_RL:         GtNm1 (THERMODYNAMICS)  max=  0.00000000000000E+00
DEBUG_STATS_RL:         GtNm1 (THERMODYNAMICS) mean=  0.00000000000000E+00
DEBUG_STATS_RL:         GtNm1 (THERMODYNAMICS) S.D.=  0.00000000000000E+00
DEBUG_STATS_RL:         GsNm1 (THERMODYNAMICS)  min=  0.00000000000000E+00
DEBUG_STATS_RL:         GsNm1 (THERMODYNAMICS)  max=  0.00000000000000E+00
DEBUG_STATS_RL:         GsNm1 (THERMODYNAMICS) mean=  0.00000000000000E+00
DEBUG_STATS_RL:         GsNm1 (THERMODYNAMICS) S.D.=  0.00000000000000E+00
(PID.TID 0000.0001)  MDS_WRITE_FIELD: it,rec,kS,kL,kH=       1     7   1   1   1 file=m_sst_step.0000000001
(PID.TID 0000.0001)  MDS_READ_FIELD: opening global file: xx_atemp.effective.0000000001.data
(PID.TID 0000.0001) EXF_SET_FLD: processing field "climsss",  file: SSS_monthly.labsea1979
(PID.TID 0000.0001) EXF_SET_FLD:   myIter, count0, count1:         6      1      2
(PID.TID 0000.0001) EXF_SET_FLD:   first, changed, fac:   F   F    0.49180327868852458
(PID.TID 0000.0001) EXF_SET_FLD: processing field "uwind",  file: u10m.labsea1979
(PID.TID 0000.0001) EXF_SET_FLD:   myIter, count0, count1:         6      1      2
(PID.TID 0000.0001) EXF_SET_FLD:   first, changed, fac:   F   F    0.49180327868852458
(PID.TID 0000.0001) EXF_SET_FLD: processing field "vwind",  file: v10m.labsea1979
(PID.TID 0000.0001) EXF_SET_FLD:   myIter, count0, count1:         6      1      2
(PID.TID 0000.0001) EXF_SET_FLD:   first, changed, fac:   F   F    0.49180327868852458
(PID.TID 0000.0001) EXF_SET_FLD: processing field "atemp",  file: tair.labsea1979
(PID.TID 0000.0001) EXF_SET_FLD:   myIter, count0, count1:         6      1      2
(PID.TID 0000.0001) EXF_SET_FLD:   first, changed, fac:   F   F    0.49180327868852458
(PID.TID 0000.0001) EXF_SET_FLD: processing field "aqh",  file: qa.labsea1979
(PID.TID 0000.0001) EXF_SET_FLD:   myIter, count0, count1:         6      1      2
(PID.TID 0000.0001) EXF_SET_FLD:   first, changed, fac:   F   F    0.49180327868852458
(PID.TID 0000.0001) EXF_SET_FLD: processing field "precip",  file: prate.labsea1979
(PID.TID 0000.0001) EXF_SET_FLD:   myIter, count0, count1:         6      1      2
(PID.TID 0000.0001) EXF_SET_FLD:   first, changed, fac:   F   F    0.49180327868852458
(PID.TID 0000.0001) EXF_SET_FLD: processing field "swdown",  file: fsh.labsea1979
(PID.TID 0000.0001) EXF_SET_FLD:   myIter, count0, count1:         6      1      2
(PID.TID 0000.0001) EXF_SET_FLD:   first, changed, fac:   F   F    0.49180327868852458
(PID.TID 0000.0001) EXF_SET_FLD: processing field "lwdown",  file: flo.labsea1979
(PID.TID 0000.0001) EXF_SET_FLD:   myIter, count0, count1:         6      1      2
(PID.TID 0000.0001) EXF_SET_FLD:   first, changed, fac:   F   F    0.49180327868852458
DEBUG_STATS_RL: Uice pre  iter (SEAICE_LSR  1)  min= -1.19106759195573E-02
DEBUG_STATS_RL: Uice pre  iter (SEAICE_LSR  1)  max=  2.40859973799500E-01
DEBUG_STATS_RL: Uice pre  iter (SEAICE_LSR  1) mean=  7.02597534863931E-02
DEBUG_STATS_RL: Uice pre  iter (SEAICE_LSR  1) S.D.=  7.57773428257728E-02
DEBUG_STATS_RL: Vice pre  iter (SEAICE_LSR  1)  min= -1.74132342678203E-01
DEBUG_STATS_RL: Vice pre  iter (SEAICE_LSR  1)  max=  9.66358613081391E-02
DEBUG_STATS_RL: Vice pre  iter (SEAICE_LSR  1) mean= -4.28491368232593E-02
DEBUG_STATS_RL: Vice pre  iter (SEAICE_LSR  1) S.D.=  5.63763392283679E-02
DEBUG_STATS_RL: Uice pre  iter (SEAICE_LSR  2)  min= -1.30564509124522E-02
DEBUG_STATS_RL: Uice pre  iter (SEAICE_LSR  2)  max=  2.47901039964918E-01
DEBUG_STATS_RL: Uice pre  iter (SEAICE_LSR  2) mean=  6.80717062414024E-02
DEBUG_STATS_RL: Uice pre  iter (SEAICE_LSR  2) S.D.=  7.48548542540195E-02
DEBUG_STATS_RL: Vice pre  iter (SEAICE_LSR  2)  min= -1.68314830999122E-01
DEBUG_STATS_RL: Vice pre  iter (SEAICE_LSR  2)  max=  8.87290074915895E-02
DEBUG_STATS_RL: Vice pre  iter (SEAICE_LSR  2) mean= -4.61137817399898E-02
DEBUG_STATS_RL: Vice pre  iter (SEAICE_LSR  2) S.D.=  5.74118961789339E-02
DEBUG_STATS_RL:                EtaN (DYNAMICS)  min= -1.25510578434376E-01
DEBUG_STATS_RL:                EtaN (DYNAMICS)  max=  3.29809109672313E-01
DEBUG_STATS_RL:                EtaN (DYNAMICS) mean= -3.51679735470046E-03
DEBUG_STATS_RL:                EtaN (DYNAMICS) S.D.=  7.24267737471263E-02
DEBUG_STATS_RL:                Uvel (DYNAMICS)  min= -3.59096386964123E-02
DEBUG_STATS_RL:                Uvel (DYNAMICS)  max=  1.01288605318195E-01
DEBUG_STATS_RL:                Uvel (DYNAMICS) mean=  5.06442107693810E-03
DEBUG_STATS_RL:                Uvel (DYNAMICS) S.D.=  1.40087544095324E-02
DEBUG_STATS_RL:                Vvel (DYNAMICS)  min= -1.10756263988807E-01
DEBUG_STATS_RL:                Vvel (DYNAMICS)  max=  7.07208418107743E-02
DEBUG_STATS_RL:                Vvel (DYNAMICS) mean= -2.17557054826053E-03
DEBUG_STATS_RL:                Vvel (DYNAMICS) S.D.=  1.80912833065971E-02
DEBUG_STATS_RL:                Wvel (DYNAMICS)  min= -2.43811460414300E-04
DEBUG_STATS_RL:                Wvel (DYNAMICS)  max=  3.28816353261803E-04
DEBUG_STATS_RL:                Wvel (DYNAMICS) mean= -1.37923543343230E-07
DEBUG_STATS_RL:                Wvel (DYNAMICS) S.D.=  2.75149300864473E-05
DEBUG_STATS_RL:               Theta (DYNAMICS)  min= -1.96015217723712E+00
DEBUG_STATS_RL:               Theta (DYNAMICS)  max=  1.32512671183370E+01
DEBUG_STATS_RL:               Theta (DYNAMICS) mean=  2.41531606071968E+00
DEBUG_STATS_RL:               Theta (DYNAMICS) S.D.=  2.57483151675911E+00
DEBUG_STATS_RL:                Salt (DYNAMICS)  min=  2.76290307531745E+01
DEBUG_STATS_RL:                Salt (DYNAMICS)  max=  3.54512307060718E+01
DEBUG_STATS_RL:                Salt (DYNAMICS) mean=  3.39367446276245E+01
DEBUG_STATS_RL:                Salt (DYNAMICS) S.D.=  1.15382313156637E+00
DEBUG_STATS_RL:                  Gu (DYNAMICS)  min= -4.45840116874531E-02
DEBUG_STATS_RL:                  Gu (DYNAMICS)  max=  1.13252404039499E-01
DEBUG_STATS_RL:                  Gu (DYNAMICS) mean=  3.02808241164178E-03
DEBUG_STATS_RL:                  Gu (DYNAMICS) S.D.=  1.59063121238338E-02
DEBUG_STATS_RL:                  Gv (DYNAMICS)  min= -1.34630447325026E-01
DEBUG_STATS_RL:                  Gv (DYNAMICS)  max=  4.81174890382834E-02
DEBUG_STATS_RL:                  Gv (DYNAMICS) mean= -7.41639241984912E-03
DEBUG_STATS_RL:                  Gv (DYNAMICS) S.D.=  1.85638365104559E-02
DEBUG_STATS_RL:               GuNm1 (DYNAMICS)  min= -3.33271036892914E-07
DEBUG_STATS_RL:               GuNm1 (DYNAMICS)  max=  1.87479663955265E-07
DEBUG_STATS_RL:               GuNm1 (DYNAMICS) mean= -3.31200046772180E-09
DEBUG_STATS_RL:               GuNm1 (DYNAMICS) S.D.=  4.08419141881131E-08
DEBUG_STATS_RL:               GvNm1 (DYNAMICS)  min= -2.04912919624493E-07
DEBUG_STATS_RL:               GvNm1 (DYNAMICS)  max=  1.56710147054484E-07
DEBUG_STATS_RL:               GvNm1 (DYNAMICS) mean= -8.96938696736990E-10
DEBUG_STATS_RL:               GvNm1 (DYNAMICS) S.D.=  3.95873164872556E-08
DEBUG_STATS_RL:               GtNm1 (DYNAMICS)  min=  0.00000000000000E+00
DEBUG_STATS_RL:               GtNm1 (DYNAMICS)  max=  0.00000000000000E+00
DEBUG_STATS_RL:               GtNm1 (DYNAMICS) mean=  0.00000000000000E+00
DEBUG_STATS_RL:               GtNm1 (DYNAMICS) S.D.=  0.00000000000000E+00
DEBUG_STATS_RL:               GsNm1 (DYNAMICS)  min=  0.00000000000000E+00
DEBUG_STATS_RL:               GsNm1 (DYNAMICS)  max=  0.00000000000000E+00
DEBUG_STATS_RL:               GsNm1 (DYNAMICS) mean=  0.00000000000000E+00
DEBUG_STATS_RL:               GsNm1 (DYNAMICS) S.D.=  0.00000000000000E+00
DEBUG_STATS_RL:    cg2d_b (SOLVE_FOR_PRESSURE)  min= -7.43169656861274E+03
DEBUG_STATS_RL:    cg2d_b (SOLVE_FOR_PRESSURE)  max=  2.17598296942621E+03
DEBUG_STATS_RL:    cg2d_b (SOLVE_FOR_PRESSURE) mean=  7.39722357441982E-13
DEBUG_STATS_RL:    cg2d_b (SOLVE_FOR_PRESSURE) S.D.=  9.02750100849838E+02
 cg2d: Sum(rhs),rhsMax =   1.49429080220642E-14  1.19612709187936E+00
DEBUG_STATS_RL:    cg2d_x (SOLVE_FOR_PRESSURE)  min= -1.18794061890824E+00
DEBUG_STATS_RL:    cg2d_x (SOLVE_FOR_PRESSURE)  max=  3.24511049575846E+00
DEBUG_STATS_RL:    cg2d_x (SOLVE_FOR_PRESSURE) mean= -3.88654400025397E-02
DEBUG_STATS_RL:    cg2d_x (SOLVE_FOR_PRESSURE) S.D.=  6.81167535252100E-01
DEBUG_STATS_RL:          Uvel (THERMODYNAMICS)  min= -3.57601727919646E-02
DEBUG_STATS_RL:          Uvel (THERMODYNAMICS)  max=  1.04775938290593E-01
DEBUG_STATS_RL:          Uvel (THERMODYNAMICS) mean=  4.39725630127573E-03
DEBUG_STATS_RL:          Uvel (THERMODYNAMICS) S.D.=  1.39028540309756E-02
DEBUG_STATS_RL:          Vvel (THERMODYNAMICS)  min= -1.27584762387795E-01
DEBUG_STATS_RL:          Vvel (THERMODYNAMICS)  max=  6.50083276838833E-02
DEBUG_STATS_RL:          Vvel (THERMODYNAMICS) mean= -3.36887217580454E-03
DEBUG_STATS_RL:          Vvel (THERMODYNAMICS) S.D.=  1.85890275650039E-02
DEBUG_STATS_RL:          Wvel (THERMODYNAMICS)  min= -2.67954696014334E-04
DEBUG_STATS_RL:          Wvel (THERMODYNAMICS)  max=  3.29804232734310E-04
DEBUG_STATS_RL:          Wvel (THERMODYNAMICS) mean= -4.85616750767887E-08
DEBUG_STATS_RL:          Wvel (THERMODYNAMICS) S.D.=  2.84164537902799E-05
DEBUG_STATS_RL:         Theta (THERMODYNAMICS)  min= -1.95963016104342E+00
DEBUG_STATS_RL:         Theta (THERMODYNAMICS)  max=  1.32396343409663E+01
DEBUG_STATS_RL:         Theta (THERMODYNAMICS) mean=  2.41506584132490E+00
DEBUG_STATS_RL:         Theta (THERMODYNAMICS) S.D.=  2.57443936967395E+00
DEBUG_STATS_RL:          Salt (THERMODYNAMICS)  min=  2.76338867569799E+01
DEBUG_STATS_RL:          Salt (THERMODYNAMICS)  max=  3.54511617149686E+01
DEBUG_STATS_RL:          Salt (THERMODYNAMICS) mean=  3.39367496241633E+01
DEBUG_STATS_RL:          Salt (THERMODYNAMICS) S.D.=  1.15359229307470E+00
DEBUG_STATS_RL:         GtNm1 (THERMODYNAMICS)  min=  0.00000000000000E+00
DEBUG_STATS_RL:         GtNm1 (THERMODYNAMICS)  max=  0.00000000000000E+00
DEBUG_STATS_RL:         GtNm1 (THERMODYNAMICS) mean=  0.00000000000000E+00
DEBUG_STATS_RL:         GtNm1 (THERMODYNAMICS) S.D.=  0.00000000000000E+00
DEBUG_STATS_RL:         GsNm1 (THERMODYNAMICS)  min=  0.00000000000000E+00
DEBUG_STATS_RL:         GsNm1 (THERMODYNAMICS)  max=  0.00000000000000E+00
DEBUG_STATS_RL:         GsNm1 (THERMODYNAMICS) mean=  0.00000000000000E+00
DEBUG_STATS_RL:         GsNm1 (THERMODYNAMICS) S.D.=  0.00000000000000E+00
(PID.TID 0000.0001)  MDS_WRITE_FIELD: it,rec,kS,kL,kH=       1     8   1   1   1 file=m_sst_step.0000000001
(PID.TID 0000.0001)  MDS_READ_FIELD: opening global file: xx_atemp.effective.0000000001.data
(PID.TID 0000.0001) EXF_SET_FLD: processing field "climsss",  file: SSS_monthly.labsea1979
(PID.TID 0000.0001) EXF_SET_FLD:   myIter, count0, count1:         7      1      2
(PID.TID 0000.0001) EXF_SET_FLD:   first, changed, fac:   F   F    0.49043715846994540
(PID.TID 0000.0001) EXF_SET_FLD: processing field "uwind",  file: u10m.labsea1979
(PID.TID 0000.0001) EXF_SET_FLD:   myIter, count0, count1:         7      1      2
(PID.TID 0000.0001) EXF_SET_FLD:   first, changed, fac:   F   F    0.49043715846994540
(PID.TID 0000.0001) EXF_SET_FLD: processing field "vwind",  file: v10m.labsea1979
(PID.TID 0000.0001) EXF_SET_FLD:   myIter, count0, count1:         7      1      2
(PID.TID 0000.0001) EXF_SET_FLD:   first, changed, fac:   F   F    0.49043715846994540
(PID.TID 0000.0001) EXF_SET_FLD: processing field "atemp",  file: tair.labsea1979
(PID.TID 0000.0001) EXF_SET_FLD:   myIter, count0, count1:         7      1      2
(PID.TID 0000.0001) EXF_SET_FLD:   first, changed, fac:   F   F    0.49043715846994540
(PID.TID 0000.0001) EXF_SET_FLD: processing field "aqh",  file: qa.labsea1979
(PID.TID 0000.0001) EXF_SET_FLD:   myIter, count0, count1:         7      1      2
(PID.TID 0000.0001) EXF_SET_FLD:   first, changed, fac:   F   F    0.49043715846994540
(PID.TID 0000.0001) EXF_SET_FLD: processing field "precip",  file: prate.labsea1979
(PID.TID 0000.0001) EXF_SET_FLD:   myIter, count0, count1:         7      1      2
(PID.TID 0000.0001) EXF_SET_FLD:   first, changed, fac:   F   F    0.49043715846994540
(PID.TID 0000.0001) EXF_SET_FLD: processing field "swdown",  file: fsh.labsea1979
(PID.TID 0000.0001) EXF_SET_FLD:   myIter, count0, count1:         7      1      2
(PID.TID 0000.0001) EXF_SET_FLD:   first, changed, fac:   F   F    0.49043715846994540
(PID.TID 0000.0001) EXF_SET_FLD: processing field "lwdown",  file: flo.labsea1979
(PID.TID 0000.0001) EXF_SET_FLD:   myIter, count0, count1:         7      1      2
(PID.TID 0000.0001) EXF_SET_FLD:   first, changed, fac:   F   F    0.49043715846994540
DEBUG_STATS_RL: Uice pre  iter (SEAICE_LSR  1)  min= -1.54549194524432E-02
DEBUG_STATS_RL: Uice pre  iter (SEAICE_LSR  1)  max=  2.53524286292195E-01
DEBUG_STATS_RL: Uice pre  iter (SEAICE_LSR  1) mean=  6.68799365324566E-02
DEBUG_STATS_RL: Uice pre  iter (SEAICE_LSR  1) S.D.=  7.54478852959715E-02
DEBUG_STATS_RL: Vice pre  iter (SEAICE_LSR  1)  min= -1.68373183021537E-01
DEBUG_STATS_RL: Vice pre  iter (SEAICE_LSR  1)  max=  8.10859368452299E-02
DEBUG_STATS_RL: Vice pre  iter (SEAICE_LSR  1) mean= -4.94905385191968E-02
DEBUG_STATS_RL: Vice pre  iter (SEAICE_LSR  1) S.D.=  5.89447951197248E-02
DEBUG_STATS_RL: Uice pre  iter (SEAICE_LSR  2)  min= -1.68104910558248E-02
DEBUG_STATS_RL: Uice pre  iter (SEAICE_LSR  2)  max=  2.51381266335640E-01
DEBUG_STATS_RL: Uice pre  iter (SEAICE_LSR  2) mean=  6.26056742422166E-02
DEBUG_STATS_RL: Uice pre  iter (SEAICE_LSR  2) S.D.=  7.23215228183382E-02
DEBUG_STATS_RL: Vice pre  iter (SEAICE_LSR  2)  min= -1.70146515867567E-01
DEBUG_STATS_RL: Vice pre  iter (SEAICE_LSR  2)  max=  7.01571636850256E-02
DEBUG_STATS_RL: Vice pre  iter (SEAICE_LSR  2) mean= -5.12009841735764E-02
DEBUG_STATS_RL: Vice pre  iter (SEAICE_LSR  2) S.D.=  5.84735965007048E-02
DEBUG_STATS_RL:                EtaN (DYNAMICS)  min= -1.21025777222813E-01
DEBUG_STATS_RL:                EtaN (DYNAMICS)  max=  3.30607450971765E-01
DEBUG_STATS_RL:                EtaN (DYNAMICS) mean= -3.95955825446632E-03
DEBUG_STATS_RL:                EtaN (DYNAMICS) S.D.=  6.93964235759505E-02
DEBUG_STATS_RL:                Uvel (DYNAMICS)  min= -3.57601727919646E-02
DEBUG_STATS_RL:                Uvel (DYNAMICS)  max=  1.04775938290593E-01
DEBUG_STATS_RL:                Uvel (DYNAMICS) mean=  4.39725630127573E-03
DEBUG_STATS_RL:                Uvel (DYNAMICS) S.D.=  1.39028540309756E-02
DEBUG_STATS_RL:                Vvel (DYNAMICS)  min= -1.27584762387795E-01
DEBUG_STATS_RL:                Vvel (DYNAMICS)  max=  6.50083276838833E-02
DEBUG_STATS_RL:                Vvel (DYNAMICS) mean= -3.36887217580454E-03
DEBUG_STATS_RL:                Vvel (DYNAMICS) S.D.=  1.85890275650039E-02
DEBUG_STATS_RL:                Wvel (DYNAMICS)  min= -2.67954696014334E-04
DEBUG_STATS_RL:                Wvel (DYNAMICS)  max=  3.29804232734310E-04
DEBUG_STATS_RL:                Wvel (DYNAMICS) mean= -4.85616750767887E-08
DEBUG_STATS_RL:                Wvel (DYNAMICS) S.D.=  2.84164537902799E-05
DEBUG_STATS_RL:               Theta (DYNAMICS)  min= -1.95963016104342E+00
DEBUG_STATS_RL:               Theta (DYNAMICS)  max=  1.32396343409663E+01
DEBUG_STATS_RL:               Theta (DYNAMICS) mean=  2.41506584132490E+00
DEBUG_STATS_RL:               Theta (DYNAMICS) S.D.=  2.57443936967395E+00
DEBUG_STATS_RL:                Salt (DYNAMICS)  min=  2.76338867569799E+01
DEBUG_STATS_RL:                Salt (DYNAMICS)  max=  3.54511617149686E+01
DEBUG_STATS_RL:                Salt (DYNAMICS) mean=  3.39367496241633E+01
DEBUG_STATS_RL:                Salt (DYNAMICS) S.D.=  1.15359229307470E+00
DEBUG_STATS_RL:                  Gu (DYNAMICS)  min= -5.18639383648721E-02
DEBUG_STATS_RL:                  Gu (DYNAMICS)  max=  1.08500044377569E-01
DEBUG_STATS_RL:                  Gu (DYNAMICS) mean=  2.22152146948218E-03
DEBUG_STATS_RL:                  Gu (DYNAMICS) S.D.=  1.62488741544583E-02
DEBUG_STATS_RL:                  Gv (DYNAMICS)  min= -1.40216393355512E-01
DEBUG_STATS_RL:                  Gv (DYNAMICS)  max=  4.07135165171805E-02
DEBUG_STATS_RL:                  Gv (DYNAMICS) mean= -7.84361289824567E-03
DEBUG_STATS_RL:                  Gv (DYNAMICS) S.D.=  1.86090017356365E-02
DEBUG_STATS_RL:               GuNm1 (DYNAMICS)  min= -3.48473911940048E-07
DEBUG_STATS_RL:               GuNm1 (DYNAMICS)  max=  1.90416017948022E-07
DEBUG_STATS_RL:               GuNm1 (DYNAMICS) mean= -3.12306477016424E-09
DEBUG_STATS_RL:               GuNm1 (DYNAMICS) S.D.=  4.09417632398925E-08
DEBUG_STATS_RL:               GvNm1 (DYNAMICS)  min= -2.15359173477233E-07
DEBUG_STATS_RL:               GvNm1 (DYNAMICS)  max=  1.82438063100031E-07
DEBUG_STATS_RL:               GvNm1 (DYNAMICS) mean= -6.53519601931422E-10
DEBUG_STATS_RL:               GvNm1 (DYNAMICS) S.D.=  4.16452354557828E-08
DEBUG_STATS_RL:               GtNm1 (DYNAMICS)  min=  0.00000000000000E+00
DEBUG_STATS_RL:               GtNm1 (DYNAMICS)  max=  0.00000000000000E+00
DEBUG_STATS_RL:               GtNm1 (DYNAMICS) mean=  0.00000000000000E+00
DEBUG_STATS_RL:               GtNm1 (DYNAMICS) S.D.=  0.00000000000000E+00
DEBUG_STATS_RL:               GsNm1 (DYNAMICS)  min=  0.00000000000000E+00
DEBUG_STATS_RL:               GsNm1 (DYNAMICS)  max=  0.00000000000000E+00
DEBUG_STATS_RL:               GsNm1 (DYNAMICS) mean=  0.00000000000000E+00
DEBUG_STATS_RL:               GsNm1 (DYNAMICS) S.D.=  0.00000000000000E+00
DEBUG_STATS_RL:    cg2d_b (SOLVE_FOR_PRESSURE)  min= -7.37985604508151E+03
DEBUG_STATS_RL:    cg2d_b (SOLVE_FOR_PRESSURE)  max=  2.18366607280393E+03
DEBUG_STATS_RL:    cg2d_b (SOLVE_FOR_PRESSURE) mean=  6.33804120298009E-13
DEBUG_STATS_RL:    cg2d_b (SOLVE_FOR_PRESSURE) S.D.=  8.98963545839682E+02
 cg2d: Sum(rhs),rhsMax =   1.30451205393456E-14  1.18778339080378E+00
DEBUG_STATS_RL:    cg2d_x (SOLVE_FOR_PRESSURE)  min= -1.13929441834561E+00
DEBUG_STATS_RL:    cg2d_x (SOLVE_FOR_PRESSURE)  max=  3.20616731162373E+00
DEBUG_STATS_RL:    cg2d_x (SOLVE_FOR_PRESSURE) mean= -4.15672442270845E-02
DEBUG_STATS_RL:    cg2d_x (SOLVE_FOR_PRESSURE) S.D.=  6.51074617232027E-01
DEBUG_STATS_RL:          Uvel (THERMODYNAMICS)  min= -4.34802359596810E-02
DEBUG_STATS_RL:          Uvel (THERMODYNAMICS)  max=  9.99752242998813E-02
DEBUG_STATS_RL:          Uvel (THERMODYNAMICS) mean=  3.48264152592183E-03
DEBUG_STATS_RL:          Uvel (THERMODYNAMICS) S.D.=  1.35343125505379E-02
DEBUG_STATS_RL:          Vvel (THERMODYNAMICS)  min= -1.33439207289315E-01
DEBUG_STATS_RL:          Vvel (THERMODYNAMICS)  max=  5.60260700766950E-02
DEBUG_STATS_RL:          Vvel (THERMODYNAMICS) mean= -4.02696574872314E-03
DEBUG_STATS_RL:          Vvel (THERMODYNAMICS) S.D.=  1.80273334212887E-02
DEBUG_STATS_RL:          Wvel (THERMODYNAMICS)  min= -2.73348162229355E-04
DEBUG_STATS_RL:          Wvel (THERMODYNAMICS)  max=  3.13596923283681E-04
DEBUG_STATS_RL:          Wvel (THERMODYNAMICS) mean=  4.73709411315215E-08
DEBUG_STATS_RL:          Wvel (THERMODYNAMICS) S.D.=  2.82661454219199E-05
DEBUG_STATS_RL:         Theta (THERMODYNAMICS)  min= -1.95943609422391E+00
DEBUG_STATS_RL:         Theta (THERMODYNAMICS)  max=  1.32225113409296E+01
DEBUG_STATS_RL:         Theta (THERMODYNAMICS) mean=  2.41480286619418E+00
DEBUG_STATS_RL:         Theta (THERMODYNAMICS) S.D.=  2.57398860030337E+00
DEBUG_STATS_RL:          Salt (THERMODYNAMICS)  min=  2.76387468555707E+01
DEBUG_STATS_RL:          Salt (THERMODYNAMICS)  max=  3.54510358217953E+01
DEBUG_STATS_RL:          Salt (THERMODYNAMICS) mean=  3.39367601804953E+01
DEBUG_STATS_RL:          Salt (THERMODYNAMICS) S.D.=  1.15334890349561E+00
DEBUG_STATS_RL:         GtNm1 (THERMODYNAMICS)  min=  0.00000000000000E+00
DEBUG_STATS_RL:         GtNm1 (THERMODYNAMICS)  max=  0.00000000000000E+00
DEBUG_STATS_RL:         GtNm1 (THERMODYNAMICS) mean=  0.00000000000000E+00
DEBUG_STATS_RL:         GtNm1 (THERMODYNAMICS) S.D.=  0.00000000000000E+00
DEBUG_STATS_RL:         GsNm1 (THERMODYNAMICS)  min=  0.00000000000000E+00
DEBUG_STATS_RL:         GsNm1 (THERMODYNAMICS)  max=  0.00000000000000E+00
DEBUG_STATS_RL:         GsNm1 (THERMODYNAMICS) mean=  0.00000000000000E+00
DEBUG_STATS_RL:         GsNm1 (THERMODYNAMICS) S.D.=  0.00000000000000E+00
(PID.TID 0000.0001)  MDS_WRITE_FIELD: it,rec,kS,kL,kH=       1     9   1   1   1 file=m_sst_step.0000000001
(PID.TID 0000.0001)  MDS_READ_FIELD: opening global file: xx_atemp.effective.0000000001.data
(PID.TID 0000.0001) EXF_SET_FLD: processing field "climsss",  file: SSS_monthly.labsea1979
(PID.TID 0000.0001) EXF_SET_FLD:   myIter, count0, count1:         8      1      2
(PID.TID 0000.0001) EXF_SET_FLD:   first, changed, fac:   F   F    0.48907103825136611
(PID.TID 0000.0001) EXF_SET_FLD: processing field "uwind",  file: u10m.labsea1979
(PID.TID 0000.0001) EXF_SET_FLD:   myIter, count0, count1:         8      1      2
(PID.TID 0000.0001) EXF_SET_FLD:   first, changed, fac:   F   F    0.48907103825136611
(PID.TID 0000.0001) EXF_SET_FLD: processing field "vwind",  file: v10m.labsea1979
(PID.TID 0000.0001) EXF_SET_FLD:   myIter, count0, count1:         8      1      2
(PID.TID 0000.0001) EXF_SET_FLD:   first, changed, fac:   F   F    0.48907103825136611
(PID.TID 0000.0001) EXF_SET_FLD: processing field "atemp",  file: tair.labsea1979
(PID.TID 0000.0001) EXF_SET_FLD:   myIter, count0, count1:         8      1      2
(PID.TID 0000.0001) EXF_SET_FLD:   first, changed, fac:   F   F    0.48907103825136611
(PID.TID 0000.0001) EXF_SET_FLD: processing field "aqh",  file: qa.labsea1979
(PID.TID 0000.0001) EXF_SET_FLD:   myIter, count0, count1:         8      1      2
(PID.TID 0000.0001) EXF_SET_FLD:   first, changed, fac:   F   F    0.48907103825136611
(PID.TID 0000.0001) EXF_SET_FLD: processing field "precip",  file: prate.labsea1979
(PID.TID 0000.0001) EXF_SET_FLD:   myIter, count0, count1:         8      1      2
(PID.TID 0000.0001) EXF_SET_FLD:   first, changed, fac:   F   F    0.48907103825136611
(PID.TID 0000.0001) EXF_SET_FLD: processing field "swdown",  file: fsh.labsea1979
(PID.TID 0000.0001) EXF_SET_FLD:   myIter, count0, count1:         8      1      2
(PID.TID 0000.0001) EXF_SET_FLD:   first, changed, fac:   F   F    0.48907103825136611
(PID.TID 0000.0001) EXF_SET_FLD: processing field "lwdown",  file: flo.labsea1979
(PID.TID 0000.0001) EXF_SET_FLD:   myIter, count0, count1:         8      1      2
(PID.TID 0000.0001) EXF_SET_FLD:   first, changed, fac:   F   F    0.48907103825136611
DEBUG_STATS_RL: Uice pre  iter (SEAICE_LSR  1)  min= -1.95687208098414E-02
DEBUG_STATS_RL: Uice pre  iter (SEAICE_LSR  1)  max=  2.56695252608154E-01
DEBUG_STATS_RL: Uice pre  iter (SEAICE_LSR  1) mean=  6.10102626014195E-02
DEBUG_STATS_RL: Uice pre  iter (SEAICE_LSR  1) S.D.=  7.26515133439481E-02
DEBUG_STATS_RL: Vice pre  iter (SEAICE_LSR  1)  min= -1.74351841640285E-01
DEBUG_STATS_RL: Vice pre  iter (SEAICE_LSR  1)  max=  6.17815719868620E-02
DEBUG_STATS_RL: Vice pre  iter (SEAICE_LSR  1) mean= -5.34332922095530E-02
DEBUG_STATS_RL: Vice pre  iter (SEAICE_LSR  1) S.D.=  5.91879685806655E-02
DEBUG_STATS_RL: Uice pre  iter (SEAICE_LSR  2)  min= -2.10631196461386E-02
DEBUG_STATS_RL: Uice pre  iter (SEAICE_LSR  2)  max=  2.47741110498679E-01
DEBUG_STATS_RL: Uice pre  iter (SEAICE_LSR  2) mean=  5.58563099531411E-02
DEBUG_STATS_RL: Uice pre  iter (SEAICE_LSR  2) S.D.=  6.83562873803232E-02
DEBUG_STATS_RL: Vice pre  iter (SEAICE_LSR  2)  min= -1.71270231909651E-01
DEBUG_STATS_RL: Vice pre  iter (SEAICE_LSR  2)  max=  5.00408736690829E-02
DEBUG_STATS_RL: Vice pre  iter (SEAICE_LSR  2) mean= -5.35471708931145E-02
DEBUG_STATS_RL: Vice pre  iter (SEAICE_LSR  2) S.D.=  5.75117440521407E-02
DEBUG_STATS_RL:                EtaN (DYNAMICS)  min= -1.16069768363178E-01
DEBUG_STATS_RL:                EtaN (DYNAMICS)  max=  3.26639972250675E-01
DEBUG_STATS_RL:                EtaN (DYNAMICS) mean= -4.23481440024905E-03
DEBUG_STATS_RL:                EtaN (DYNAMICS) S.D.=  6.63305979493893E-02
DEBUG_STATS_RL:                Uvel (DYNAMICS)  min= -4.34802359596810E-02
DEBUG_STATS_RL:                Uvel (DYNAMICS)  max=  9.99752242998813E-02
DEBUG_STATS_RL:                Uvel (DYNAMICS) mean=  3.48264152592183E-03
DEBUG_STATS_RL:                Uvel (DYNAMICS) S.D.=  1.35343125505379E-02
DEBUG_STATS_RL:                Vvel (DYNAMICS)  min= -1.33439207289315E-01
DEBUG_STATS_RL:                Vvel (DYNAMICS)  max=  5.60260700766950E-02
DEBUG_STATS_RL:                Vvel (DYNAMICS) mean= -4.02696574872314E-03
DEBUG_STATS_RL:                Vvel (DYNAMICS) S.D.=  1.80273334212887E-02
DEBUG_STATS_RL:                Wvel (DYNAMICS)  min= -2.73348162229355E-04
DEBUG_STATS_RL:                Wvel (DYNAMICS)  max=  3.13596923283681E-04
DEBUG_STATS_RL:                Wvel (DYNAMICS) mean=  4.73709411315215E-08
DEBUG_STATS_RL:                Wvel (DYNAMICS) S.D.=  2.82661454219199E-05
DEBUG_STATS_RL:               Theta (DYNAMICS)  min= -1.95943609422391E+00
DEBUG_STATS_RL:               Theta (DYNAMICS)  max=  1.32225113409296E+01
DEBUG_STATS_RL:               Theta (DYNAMICS) mean=  2.41480286619418E+00
DEBUG_STATS_RL:               Theta (DYNAMICS) S.D.=  2.57398860030337E+00
DEBUG_STATS_RL:                Salt (DYNAMICS)  min=  2.76387468555707E+01
DEBUG_STATS_RL:                Salt (DYNAMICS)  max=  3.54510358217953E+01
DEBUG_STATS_RL:                Salt (DYNAMICS) mean=  3.39367601804953E+01
DEBUG_STATS_RL:                Salt (DYNAMICS) S.D.=  1.15334890349561E+00
DEBUG_STATS_RL:                  Gu (DYNAMICS)  min= -5.98368153064591E-02
DEBUG_STATS_RL:                  Gu (DYNAMICS)  max=  9.68873121299260E-02
DEBUG_STATS_RL:                  Gu (DYNAMICS) mean=  1.30194972950038E-03
DEBUG_STATS_RL:                  Gu (DYNAMICS) S.D.=  1.61566615234642E-02
DEBUG_STATS_RL:                  Gv (DYNAMICS)  min= -1.36271217268018E-01
DEBUG_STATS_RL:                  Gv (DYNAMICS)  max=  3.83573237348696E-02
DEBUG_STATS_RL:                  Gv (DYNAMICS) mean= -7.71950831958009E-03
DEBUG_STATS_RL:                  Gv (DYNAMICS) S.D.=  1.77533563668090E-02
DEBUG_STATS_RL:               GuNm1 (DYNAMICS)  min= -3.40955168137053E-07
DEBUG_STATS_RL:               GuNm1 (DYNAMICS)  max=  1.82641400821290E-07
DEBUG_STATS_RL:               GuNm1 (DYNAMICS) mean= -2.79196714444929E-09
DEBUG_STATS_RL:               GuNm1 (DYNAMICS) S.D.=  4.07453533302903E-08
DEBUG_STATS_RL:               GvNm1 (DYNAMICS)  min= -2.14559263714296E-07
DEBUG_STATS_RL:               GvNm1 (DYNAMICS)  max=  1.94148824775165E-07
DEBUG_STATS_RL:               GvNm1 (DYNAMICS) mean= -4.04169206810914E-10
DEBUG_STATS_RL:               GvNm1 (DYNAMICS) S.D.=  4.19222729580607E-08
DEBUG_STATS_RL:               GtNm1 (DYNAMICS)  min=  0.00000000000000E+00
DEBUG_STATS_RL:               GtNm1 (DYNAMICS)  max=  0.00000000000000E+00
DEBUG_STATS_RL:               GtNm1 (DYNAMICS) mean=  0.00000000000000E+00
DEBUG_STATS_RL:               GtNm1 (DYNAMICS) S.D.=  0.00000000000000E+00
DEBUG_STATS_RL:               GsNm1 (DYNAMICS)  min=  0.00000000000000E+00
DEBUG_STATS_RL:               GsNm1 (DYNAMICS)  max=  0.00000000000000E+00
DEBUG_STATS_RL:               GsNm1 (DYNAMICS) mean=  0.00000000000000E+00
DEBUG_STATS_RL:               GsNm1 (DYNAMICS) S.D.=  0.00000000000000E+00
DEBUG_STATS_RL:    cg2d_b (SOLVE_FOR_PRESSURE)  min= -7.29975929937823E+03
DEBUG_STATS_RL:    cg2d_b (SOLVE_FOR_PRESSURE)  max=  2.19478299507016E+03
DEBUG_STATS_RL:    cg2d_b (SOLVE_FOR_PRESSURE) mean= -3.90135331448012E-13
DEBUG_STATS_RL:    cg2d_b (SOLVE_FOR_PRESSURE) S.D.=  8.94146290227803E+02
 cg2d: Sum(rhs),rhsMax =  -7.45237205279636E-15  1.17489186776829E+00
DEBUG_STATS_RL:    cg2d_x (SOLVE_FOR_PRESSURE)  min= -1.08771127617226E+00
DEBUG_STATS_RL:    cg2d_x (SOLVE_FOR_PRESSURE)  max=  3.12128519797497E+00
DEBUG_STATS_RL:    cg2d_x (SOLVE_FOR_PRESSURE) mean= -4.19588396851648E-02
DEBUG_STATS_RL:    cg2d_x (SOLVE_FOR_PRESSURE) S.D.=  6.20262122262610E-01
DEBUG_STATS_RL:          Uvel (THERMODYNAMICS)  min= -5.12375198232515E-02
DEBUG_STATS_RL:          Uvel (THERMODYNAMICS)  max=  8.84896388076343E-02
DEBUG_STATS_RL:          Uvel (THERMODYNAMICS) mean=  2.55769138540212E-03
DEBUG_STATS_RL:          Uvel (THERMODYNAMICS) S.D.=  1.29064693909705E-02
DEBUG_STATS_RL:          Vvel (THERMODYNAMICS)  min= -1.29344604199502E-01
DEBUG_STATS_RL:          Vvel (THERMODYNAMICS)  max=  4.58633296186250E-02
DEBUG_STATS_RL:          Vvel (THERMODYNAMICS) mean= -4.14107843006441E-03
DEBUG_STATS_RL:          Vvel (THERMODYNAMICS) S.D.=  1.66082836246054E-02
DEBUG_STATS_RL:          Wvel (THERMODYNAMICS)  min= -2.60848991809586E-04
DEBUG_STATS_RL:          Wvel (THERMODYNAMICS)  max=  2.85731299794378E-04
DEBUG_STATS_RL:          Wvel (THERMODYNAMICS) mean=  1.36793666178589E-07
DEBUG_STATS_RL:          Wvel (THERMODYNAMICS) S.D.=  2.70580054557615E-05
DEBUG_STATS_RL:         Theta (THERMODYNAMICS)  min= -1.95932886747263E+00
DEBUG_STATS_RL:         Theta (THERMODYNAMICS)  max=  1.32010303660583E+01
DEBUG_STATS_RL:         Theta (THERMODYNAMICS) mean=  2.41452315045422E+00
DEBUG_STATS_RL:         Theta (THERMODYNAMICS) S.D.=  2.57350774067654E+00
DEBUG_STATS_RL:          Salt (THERMODYNAMICS)  min=  2.76435505129419E+01
DEBUG_STATS_RL:          Salt (THERMODYNAMICS)  max=  3.54508660670958E+01
DEBUG_STATS_RL:          Salt (THERMODYNAMICS) mean=  3.39367749828880E+01
DEBUG_STATS_RL:          Salt (THERMODYNAMICS) S.D.=  1.15309738582069E+00
DEBUG_STATS_RL:         GtNm1 (THERMODYNAMICS)  min=  0.00000000000000E+00
DEBUG_STATS_RL:         GtNm1 (THERMODYNAMICS)  max=  0.00000000000000E+00
DEBUG_STATS_RL:         GtNm1 (THERMODYNAMICS) mean=  0.00000000000000E+00
DEBUG_STATS_RL:         GtNm1 (THERMODYNAMICS) S.D.=  0.00000000000000E+00
DEBUG_STATS_RL:         GsNm1 (THERMODYNAMICS)  min=  0.00000000000000E+00
DEBUG_STATS_RL:         GsNm1 (THERMODYNAMICS)  max=  0.00000000000000E+00
DEBUG_STATS_RL:         GsNm1 (THERMODYNAMICS) mean=  0.00000000000000E+00
DEBUG_STATS_RL:         GsNm1 (THERMODYNAMICS) S.D.=  0.00000000000000E+00
(PID.TID 0000.0001) Did not write pickup because writePickupAtEnd = FALSE
(PID.TID 0000.0001)  MDS_WRITE_FIELD: it,rec,kS,kL,kH=       1    10   1   1   1 file=m_sst_step.0000000001
(PID.TID 0000.0001) gencost # 03
(PID.TID 0000.0001)  MDS_READ_FIELD: opening global file: sigma_sst.bin
(PID.TID 0000.0001)  MDS_READ_FIELD: opening global file: m_sst_step.0000000001.data
(PID.TID 0000.0001)  MDS_READ_FIELD: opening global file: labsea_SST_fields_t10
(PID.TID 0000.0001)  MDS_WRITE_FIELD: it,rec,kS,kL,kH=       1     1   1   1   1 file=misfit_sst
(PID.TID 0000.0001)  MDS_READ_FIELD: opening global file: sigma_sst.bin
(PID.TID 0000.0001)  MDS_READ_FIELD: opening global file: m_sst_step.0000000001.data
(PID.TID 0000.0001)  MDS_READ_FIELD: opening global file: labsea_SST_fields_t10
(PID.TID 0000.0001)  MDS_WRITE_FIELD: it,rec,kS,kL,kH=       1     2   1   1   1 file=misfit_sst
(PID.TID 0000.0001)  MDS_READ_FIELD: opening global file: sigma_sst.bin
(PID.TID 0000.0001)  MDS_READ_FIELD: opening global file: m_sst_step.0000000001.data
(PID.TID 0000.0001)  MDS_READ_FIELD: opening global file: labsea_SST_fields_t10
(PID.TID 0000.0001)  MDS_WRITE_FIELD: it,rec,kS,kL,kH=       1     3   1   1   1 file=misfit_sst
(PID.TID 0000.0001)  MDS_READ_FIELD: opening global file: sigma_sst.bin
(PID.TID 0000.0001)  MDS_READ_FIELD: opening global file: m_sst_step.0000000001.data
(PID.TID 0000.0001)  MDS_READ_FIELD: opening global file: labsea_SST_fields_t10
(PID.TID 0000.0001)  MDS_WRITE_FIELD: it,rec,kS,kL,kH=       1     4   1   1   1 file=misfit_sst
(PID.TID 0000.0001)  MDS_READ_FIELD: opening global file: sigma_sst.bin
(PID.TID 0000.0001)  MDS_READ_FIELD: opening global file: m_sst_step.0000000001.data
(PID.TID 0000.0001)  MDS_READ_FIELD: opening global file: labsea_SST_fields_t10
(PID.TID 0000.0001)  MDS_WRITE_FIELD: it,rec,kS,kL,kH=       1     5   1   1   1 file=misfit_sst
(PID.TID 0000.0001)  MDS_READ_FIELD: opening global file: sigma_sst.bin
(PID.TID 0000.0001)  MDS_READ_FIELD: opening global file: m_sst_step.0000000001.data
(PID.TID 0000.0001)  MDS_READ_FIELD: opening global file: labsea_SST_fields_t10
(PID.TID 0000.0001)  MDS_WRITE_FIELD: it,rec,kS,kL,kH=       1     6   1   1   1 file=misfit_sst
(PID.TID 0000.0001)  MDS_READ_FIELD: opening global file: sigma_sst.bin
(PID.TID 0000.0001)  MDS_READ_FIELD: opening global file: m_sst_step.0000000001.data
(PID.TID 0000.0001)  MDS_READ_FIELD: opening global file: labsea_SST_fields_t10
(PID.TID 0000.0001)  MDS_WRITE_FIELD: it,rec,kS,kL,kH=       1     7   1   1   1 file=misfit_sst
(PID.TID 0000.0001)  MDS_READ_FIELD: opening global file: sigma_sst.bin
(PID.TID 0000.0001)  MDS_READ_FIELD: opening global file: m_sst_step.0000000001.data
(PID.TID 0000.0001)  MDS_READ_FIELD: opening global file: labsea_SST_fields_t10
(PID.TID 0000.0001)  MDS_WRITE_FIELD: it,rec,kS,kL,kH=       1     8   1   1   1 file=misfit_sst
(PID.TID 0000.0001)  MDS_READ_FIELD: opening global file: sigma_sst.bin
(PID.TID 0000.0001)  MDS_READ_FIELD: opening global file: m_sst_step.0000000001.data
(PID.TID 0000.0001)  MDS_READ_FIELD: opening global file: labsea_SST_fields_t10
(PID.TID 0000.0001)  MDS_WRITE_FIELD: it,rec,kS,kL,kH=       1     9   1   1   1 file=misfit_sst
(PID.TID 0000.0001)  MDS_READ_FIELD: opening global file: sigma_sst.bin
(PID.TID 0000.0001)  MDS_READ_FIELD: opening global file: m_sst_step.0000000001.data
(PID.TID 0000.0001)  MDS_READ_FIELD: opening global file: labsea_SST_fields_t10
(PID.TID 0000.0001)  MDS_WRITE_FIELD: it,rec,kS,kL,kH=       1    10   1   1   1 file=misfit_sst
(PID.TID 0000.0001)  MDS_READ_FIELD: opening global file: xx_atemp.0000000001.data
(PID.TID 0000.0001)  MDS_READ_FIELD: opening global file: xx_atemp.0000000001.data
(PID.TID 0000.0001)  MDS_READ_FIELD: opening global file: xx_atemp.0000000001.data
(PID.TID 0000.0001)  MDS_READ_FIELD: opening global file: xx_atemp.0000000001.data
(PID.TID 0000.0001)  MDS_READ_FIELD: opening global file: xx_atemp.0000000001.data
(PID.TID 0000.0001)  MDS_READ_FIELD: opening global file: xx_atemp.0000000001.data
(PID.TID 0000.0001)  MDS_READ_FIELD: opening global file: xx_atemp.0000000001.data
(PID.TID 0000.0001)  MDS_READ_FIELD: opening global file: xx_atemp.0000000001.data
(PID.TID 0000.0001)  MDS_READ_FIELD: opening global file: xx_atemp.0000000001.data
(PID.TID 0000.0001)  MDS_READ_FIELD: opening global file: xx_atemp.0000000001.data
(PID.TID 0000.0001)  MDS_READ_FIELD: opening global file: xx_atemp.0000000001.data
 --> f_ice     = 0.000000000000000D+00
 --> f_smrarea = 0.000000000000000D+00
 --> f_smrarea = 0.000000000000000D+00
 --> f_smrarea = 0.000000000000000D+00
(PID.TID 0000.0001)  --> f_gencost = 0.527453128215445D+04 3
(PID.TID 0000.0001)  --> f_gentim2d = 0.243374980010000D+03 1
(PID.TID 0000.0001)  --> fc               = 0.527453128215445D+04
(PID.TID 0000.0001)  cost_Final: final cost function =  0.527453128215445D+04
(PID.TID 0000.0001) 
(PID.TID 0000.0001)              cost function evaluation finished.
(PID.TID 0000.0001) 
(PID.TID 0000.0001)   early fc =  0.000000000000000D+00
(PID.TID 0000.0001)   local fc =  0.527453128215445D+04
(PID.TID 0000.0001)  global fc =  0.527453128215445D+04
(PID.TID 0000.0001) grdchk perturb(-)fc: fcpertminus =  5.27453128215445E+03
(PID.TID 0000.0001)  MDS_READ_FIELD: opening global file: xx_atemp.0000000001.data
(PID.TID 0000.0001)  MDS_WRITE_FIELD: it,rec,kS,kL,kH=       1     1   1   1   1 file=xx_atemp.0000000001
grad-res -------------------------------
 grad-res     0    3    8    8    1    1    1    1   5.27453128215E+03  5.27453128215E+03  5.27453128215E+03
 grad-res     0    3    3   77    0    1    1    1  -9.13514880664E+03  9.09494701773E-08  1.00000000001E+00
(PID.TID 0000.0001)  ADM  ref_cost_function      =  5.27453128215446E+03
(PID.TID 0000.0001)  ADM  adjoint_gradient       = -9.13514880664278E+03
(PID.TID 0000.0001)  ADM  finite-diff_grad       =  9.09494701772928E-08
(PID.TID 0000.0001) ====== End of gradient-check number   3 (ierr=  0) =======
(PID.TID 0000.0001) ====== Starts gradient-check number   4 (=ichknum) =======
 ph-test icomp, ncvarcomp, ichknum           78        1650           4
 ph-grd _loc: bi, bj, icomptest, ichknum            1           1          77           4
 ph-grd -->hit<--            9           8           1           1
(PID.TID 0000.0001) grdchk pos: i,j,k=    9    8    1 ; bi,bj=   1   1 ; iobc=  1 ; rec=   1
(PID.TID 0000.0001)  MDS_READ_FIELD: opening global file: adxx_atemp.0000000001.data
(PID.TID 0000.0001)  MDS_READ_FIELD: opening global file: xx_atemp.0000000001.data
(PID.TID 0000.0001)  MDS_WRITE_FIELD: it,rec,kS,kL,kH=       1     1   1   1   1 file=xx_atemp.0000000001
(PID.TID 0000.0001)  MDS_READ_FIELD: opening global file: LevCli_temp.labsea1979
(PID.TID 0000.0001)  MDS_READ_FIELD: opening global file: LevCli_salt.labsea1979
(PID.TID 0000.0001) Start initial hydrostatic pressure computation
(PID.TID 0000.0001) Pressure is predetermined for buoyancyRelation OCEANIC
(PID.TID 0000.0001) 
(PID.TID 0000.0001) CTRL_INIT_REC: Getting record indices for xx_atemp
(PID.TID 0000.0001) CTRL_INIT_REC: Record indices for xx_atemp:
(PID.TID 0000.0001) CTRL_INIT_REC: startrec =          1, endrec =         11
(PID.TID 0000.0001)  MDS_READ_FIELD: opening global file: xx_atemp.0000000001.data
(PID.TID 0000.0001)  MDS_WRITE_FIELD: it,rec,kS,kL,kH=       1     1   1   1   1 file=xx_atemp.effective.0000000001
(PID.TID 0000.0001)  MDS_READ_FIELD: opening global file: xx_atemp.0000000001.data
(PID.TID 0000.0001)  MDS_WRITE_FIELD: it,rec,kS,kL,kH=       1     2   1   1   1 file=xx_atemp.effective.0000000001
(PID.TID 0000.0001)  MDS_READ_FIELD: opening global file: xx_atemp.0000000001.data
(PID.TID 0000.0001)  MDS_WRITE_FIELD: it,rec,kS,kL,kH=       1     3   1   1   1 file=xx_atemp.effective.0000000001
(PID.TID 0000.0001)  MDS_READ_FIELD: opening global file: xx_atemp.0000000001.data
(PID.TID 0000.0001)  MDS_WRITE_FIELD: it,rec,kS,kL,kH=       1     4   1   1   1 file=xx_atemp.effective.0000000001
(PID.TID 0000.0001)  MDS_READ_FIELD: opening global file: xx_atemp.0000000001.data
(PID.TID 0000.0001)  MDS_WRITE_FIELD: it,rec,kS,kL,kH=       1     5   1   1   1 file=xx_atemp.effective.0000000001
(PID.TID 0000.0001)  MDS_READ_FIELD: opening global file: xx_atemp.0000000001.data
(PID.TID 0000.0001)  MDS_WRITE_FIELD: it,rec,kS,kL,kH=       1     6   1   1   1 file=xx_atemp.effective.0000000001
(PID.TID 0000.0001)  MDS_READ_FIELD: opening global file: xx_atemp.0000000001.data
(PID.TID 0000.0001)  MDS_WRITE_FIELD: it,rec,kS,kL,kH=       1     7   1   1   1 file=xx_atemp.effective.0000000001
(PID.TID 0000.0001)  MDS_READ_FIELD: opening global file: xx_atemp.0000000001.data
(PID.TID 0000.0001)  MDS_WRITE_FIELD: it,rec,kS,kL,kH=       1     8   1   1   1 file=xx_atemp.effective.0000000001
(PID.TID 0000.0001)  MDS_READ_FIELD: opening global file: xx_atemp.0000000001.data
(PID.TID 0000.0001)  MDS_WRITE_FIELD: it,rec,kS,kL,kH=       1     9   1   1   1 file=xx_atemp.effective.0000000001
(PID.TID 0000.0001)  MDS_READ_FIELD: opening global file: xx_atemp.0000000001.data
(PID.TID 0000.0001)  MDS_WRITE_FIELD: it,rec,kS,kL,kH=       1    10   1   1   1 file=xx_atemp.effective.0000000001
(PID.TID 0000.0001)  MDS_READ_FIELD: opening global file: xx_atemp.0000000001.data
(PID.TID 0000.0001)  MDS_WRITE_FIELD: it,rec,kS,kL,kH=       1    11   1   1   1 file=xx_atemp.effective.0000000001
(PID.TID 0000.0001)  MDS_READ_FIELD: opening global file: xx_atemp.effective.0000000001.data
(PID.TID 0000.0001)  MDS_READ_FIELD: opening global file: ones_64b.bin
(PID.TID 0000.0001)  MDS_WRITE_FIELD: it,rec,kS,kL,kH=       1     1   1   1   1 file=xx_atemp.effective.0000000001
(PID.TID 0000.0001)  MDS_READ_FIELD: opening global file: xx_atemp.effective.0000000001.data
(PID.TID 0000.0001)  MDS_READ_FIELD: opening global file: ones_64b.bin
(PID.TID 0000.0001)  MDS_WRITE_FIELD: it,rec,kS,kL,kH=       1     2   1   1   1 file=xx_atemp.effective.0000000001
(PID.TID 0000.0001)  MDS_READ_FIELD: opening global file: xx_atemp.effective.0000000001.data
(PID.TID 0000.0001)  MDS_READ_FIELD: opening global file: ones_64b.bin
(PID.TID 0000.0001)  MDS_WRITE_FIELD: it,rec,kS,kL,kH=       1     3   1   1   1 file=xx_atemp.effective.0000000001
(PID.TID 0000.0001)  MDS_READ_FIELD: opening global file: xx_atemp.effective.0000000001.data
(PID.TID 0000.0001)  MDS_READ_FIELD: opening global file: ones_64b.bin
(PID.TID 0000.0001)  MDS_WRITE_FIELD: it,rec,kS,kL,kH=       1     4   1   1   1 file=xx_atemp.effective.0000000001
(PID.TID 0000.0001)  MDS_READ_FIELD: opening global file: xx_atemp.effective.0000000001.data
(PID.TID 0000.0001)  MDS_READ_FIELD: opening global file: ones_64b.bin
(PID.TID 0000.0001)  MDS_WRITE_FIELD: it,rec,kS,kL,kH=       1     5   1   1   1 file=xx_atemp.effective.0000000001
(PID.TID 0000.0001)  MDS_READ_FIELD: opening global file: xx_atemp.effective.0000000001.data
(PID.TID 0000.0001)  MDS_READ_FIELD: opening global file: ones_64b.bin
(PID.TID 0000.0001)  MDS_WRITE_FIELD: it,rec,kS,kL,kH=       1     6   1   1   1 file=xx_atemp.effective.0000000001
(PID.TID 0000.0001)  MDS_READ_FIELD: opening global file: xx_atemp.effective.0000000001.data
(PID.TID 0000.0001)  MDS_READ_FIELD: opening global file: ones_64b.bin
(PID.TID 0000.0001)  MDS_WRITE_FIELD: it,rec,kS,kL,kH=       1     7   1   1   1 file=xx_atemp.effective.0000000001
(PID.TID 0000.0001)  MDS_READ_FIELD: opening global file: xx_atemp.effective.0000000001.data
(PID.TID 0000.0001)  MDS_READ_FIELD: opening global file: ones_64b.bin
(PID.TID 0000.0001)  MDS_WRITE_FIELD: it,rec,kS,kL,kH=       1     8   1   1   1 file=xx_atemp.effective.0000000001
(PID.TID 0000.0001)  MDS_READ_FIELD: opening global file: xx_atemp.effective.0000000001.data
(PID.TID 0000.0001)  MDS_READ_FIELD: opening global file: ones_64b.bin
(PID.TID 0000.0001)  MDS_WRITE_FIELD: it,rec,kS,kL,kH=       1     9   1   1   1 file=xx_atemp.effective.0000000001
(PID.TID 0000.0001)  MDS_READ_FIELD: opening global file: xx_atemp.effective.0000000001.data
(PID.TID 0000.0001)  MDS_READ_FIELD: opening global file: ones_64b.bin
(PID.TID 0000.0001)  MDS_WRITE_FIELD: it,rec,kS,kL,kH=       1    10   1   1   1 file=xx_atemp.effective.0000000001
(PID.TID 0000.0001)  MDS_READ_FIELD: opening global file: xx_atemp.effective.0000000001.data
(PID.TID 0000.0001)  MDS_READ_FIELD: opening global file: ones_64b.bin
(PID.TID 0000.0001)  MDS_WRITE_FIELD: it,rec,kS,kL,kH=       1    11   1   1   1 file=xx_atemp.effective.0000000001
(PID.TID 0000.0001) // =======================================================
(PID.TID 0000.0001) // Model current state
(PID.TID 0000.0001) // =======================================================
(PID.TID 0000.0001) 
(PID.TID 0000.0001)  MDS_WRITE_FIELD: it,rec,kS,kL,kH=       1     1   1   1   1 file=m_sst_step.0000000001
(PID.TID 0000.0001)  MDS_READ_FIELD: opening global file: xx_atemp.effective.0000000001.data
(PID.TID 0000.0001)  MDS_READ_FIELD: opening global file: xx_atemp.effective.0000000001.data
(PID.TID 0000.0001) EXF_SET_FLD: processing field "climsss",  file: SSS_monthly.labsea1979
(PID.TID 0000.0001) EXF_SET_FLD:   myIter, count0, count1:         0      1      2
(PID.TID 0000.0001) EXF_SET_FLD:   first, changed, fac:   T   F    0.50000000000000000
(PID.TID 0000.0001) EXF_SET_FLD: field "climsss", it=         0, loading rec=     1
(PID.TID 0000.0001) EXF_SET_FLD:   from file: "SSS_monthly.labsea1979"
(PID.TID 0000.0001)  MDS_READ_FIELD: opening global file: SSS_monthly.labsea1979
(PID.TID 0000.0001) EXF_SET_FLD: field "climsss", it=         0, loading rec=     2
(PID.TID 0000.0001) EXF_SET_FLD:   from file: "SSS_monthly.labsea1979"
(PID.TID 0000.0001)  MDS_READ_FIELD: opening global file: SSS_monthly.labsea1979
(PID.TID 0000.0001) EXF_SET_FLD: processing field "uwind",  file: u10m.labsea1979
(PID.TID 0000.0001) EXF_SET_FLD:   myIter, count0, count1:         0      1      2
(PID.TID 0000.0001) EXF_SET_FLD:   first, changed, fac:   T   F    0.50000000000000000
(PID.TID 0000.0001) EXF_SET_FLD: field "uwind", it=         0, loading rec=     1
(PID.TID 0000.0001) EXF_SET_FLD:   from file: "u10m.labsea1979"
(PID.TID 0000.0001)  MDS_READ_FIELD: opening global file: u10m.labsea1979
(PID.TID 0000.0001) EXF_SET_FLD: field "uwind", it=         0, loading rec=     2
(PID.TID 0000.0001) EXF_SET_FLD:   from file: "u10m.labsea1979"
(PID.TID 0000.0001)  MDS_READ_FIELD: opening global file: u10m.labsea1979
(PID.TID 0000.0001) EXF_SET_FLD: processing field "vwind",  file: v10m.labsea1979
(PID.TID 0000.0001) EXF_SET_FLD:   myIter, count0, count1:         0      1      2
(PID.TID 0000.0001) EXF_SET_FLD:   first, changed, fac:   T   F    0.50000000000000000
(PID.TID 0000.0001) EXF_SET_FLD: field "vwind", it=         0, loading rec=     1
(PID.TID 0000.0001) EXF_SET_FLD:   from file: "v10m.labsea1979"
(PID.TID 0000.0001)  MDS_READ_FIELD: opening global file: v10m.labsea1979
(PID.TID 0000.0001) EXF_SET_FLD: field "vwind", it=         0, loading rec=     2
(PID.TID 0000.0001) EXF_SET_FLD:   from file: "v10m.labsea1979"
(PID.TID 0000.0001)  MDS_READ_FIELD: opening global file: v10m.labsea1979
(PID.TID 0000.0001) EXF_SET_FLD: processing field "atemp",  file: tair.labsea1979
(PID.TID 0000.0001) EXF_SET_FLD:   myIter, count0, count1:         0      1      2
(PID.TID 0000.0001) EXF_SET_FLD:   first, changed, fac:   T   F    0.50000000000000000
(PID.TID 0000.0001) EXF_SET_FLD: field "atemp", it=         0, loading rec=     1
(PID.TID 0000.0001) EXF_SET_FLD:   from file: "tair.labsea1979"
(PID.TID 0000.0001)  MDS_READ_FIELD: opening global file: tair.labsea1979
(PID.TID 0000.0001) EXF_SET_FLD: field "atemp", it=         0, loading rec=     2
(PID.TID 0000.0001) EXF_SET_FLD:   from file: "tair.labsea1979"
(PID.TID 0000.0001)  MDS_READ_FIELD: opening global file: tair.labsea1979
(PID.TID 0000.0001) EXF_SET_FLD: processing field "aqh",  file: qa.labsea1979
(PID.TID 0000.0001) EXF_SET_FLD:   myIter, count0, count1:         0      1      2
(PID.TID 0000.0001) EXF_SET_FLD:   first, changed, fac:   T   F    0.50000000000000000
(PID.TID 0000.0001) EXF_SET_FLD: field "aqh", it=         0, loading rec=     1
(PID.TID 0000.0001) EXF_SET_FLD:   from file: "qa.labsea1979"
(PID.TID 0000.0001)  MDS_READ_FIELD: opening global file: qa.labsea1979
(PID.TID 0000.0001) EXF_SET_FLD: field "aqh", it=         0, loading rec=     2
(PID.TID 0000.0001) EXF_SET_FLD:   from file: "qa.labsea1979"
(PID.TID 0000.0001)  MDS_READ_FIELD: opening global file: qa.labsea1979
(PID.TID 0000.0001) EXF_SET_FLD: processing field "precip",  file: prate.labsea1979
(PID.TID 0000.0001) EXF_SET_FLD:   myIter, count0, count1:         0      1      2
(PID.TID 0000.0001) EXF_SET_FLD:   first, changed, fac:   T   F    0.50000000000000000
(PID.TID 0000.0001) EXF_SET_FLD: field "precip", it=         0, loading rec=     1
(PID.TID 0000.0001) EXF_SET_FLD:   from file: "prate.labsea1979"
(PID.TID 0000.0001)  MDS_READ_FIELD: opening global file: prate.labsea1979
(PID.TID 0000.0001) EXF_SET_FLD: field "precip", it=         0, loading rec=     2
(PID.TID 0000.0001) EXF_SET_FLD:   from file: "prate.labsea1979"
(PID.TID 0000.0001)  MDS_READ_FIELD: opening global file: prate.labsea1979
(PID.TID 0000.0001) EXF_SET_FLD: processing field "swdown",  file: fsh.labsea1979
(PID.TID 0000.0001) EXF_SET_FLD:   myIter, count0, count1:         0      1      2
(PID.TID 0000.0001) EXF_SET_FLD:   first, changed, fac:   T   F    0.50000000000000000
(PID.TID 0000.0001) EXF_SET_FLD: field "swdown", it=         0, loading rec=     1
(PID.TID 0000.0001) EXF_SET_FLD:   from file: "fsh.labsea1979"
(PID.TID 0000.0001)  MDS_READ_FIELD: opening global file: fsh.labsea1979
(PID.TID 0000.0001) EXF_SET_FLD: field "swdown", it=         0, loading rec=     2
(PID.TID 0000.0001) EXF_SET_FLD:   from file: "fsh.labsea1979"
(PID.TID 0000.0001)  MDS_READ_FIELD: opening global file: fsh.labsea1979
(PID.TID 0000.0001) EXF_SET_FLD: processing field "lwdown",  file: flo.labsea1979
(PID.TID 0000.0001) EXF_SET_FLD:   myIter, count0, count1:         0      1      2
(PID.TID 0000.0001) EXF_SET_FLD:   first, changed, fac:   T   F    0.50000000000000000
(PID.TID 0000.0001) EXF_SET_FLD: field "lwdown", it=         0, loading rec=     1
(PID.TID 0000.0001) EXF_SET_FLD:   from file: "flo.labsea1979"
(PID.TID 0000.0001)  MDS_READ_FIELD: opening global file: flo.labsea1979
(PID.TID 0000.0001) EXF_SET_FLD: field "lwdown", it=         0, loading rec=     2
(PID.TID 0000.0001) EXF_SET_FLD:   from file: "flo.labsea1979"
(PID.TID 0000.0001)  MDS_READ_FIELD: opening global file: flo.labsea1979
DEBUG_STATS_RL: Uice pre  iter (SEAICE_LSR  1)  min=  0.00000000000000E+00
DEBUG_STATS_RL: Uice pre  iter (SEAICE_LSR  1)  max=  0.00000000000000E+00
DEBUG_STATS_RL: Uice pre  iter (SEAICE_LSR  1) mean=  0.00000000000000E+00
DEBUG_STATS_RL: Uice pre  iter (SEAICE_LSR  1) S.D.=  0.00000000000000E+00
DEBUG_STATS_RL: Vice pre  iter (SEAICE_LSR  1)  min=  0.00000000000000E+00
DEBUG_STATS_RL: Vice pre  iter (SEAICE_LSR  1)  max=  0.00000000000000E+00
DEBUG_STATS_RL: Vice pre  iter (SEAICE_LSR  1) mean=  0.00000000000000E+00
DEBUG_STATS_RL: Vice pre  iter (SEAICE_LSR  1) S.D.=  0.00000000000000E+00
DEBUG_STATS_RL: Uice pre  iter (SEAICE_LSR  2)  min= -4.74478293331770E-04
DEBUG_STATS_RL: Uice pre  iter (SEAICE_LSR  2)  max=  5.19863184318560E-03
DEBUG_STATS_RL: Uice pre  iter (SEAICE_LSR  2) mean=  1.15969103043184E-03
DEBUG_STATS_RL: Uice pre  iter (SEAICE_LSR  2) S.D.=  1.37050304765703E-03
DEBUG_STATS_RL: Vice pre  iter (SEAICE_LSR  2)  min= -2.82028703630720E-03
DEBUG_STATS_RL: Vice pre  iter (SEAICE_LSR  2)  max=  8.55909305417855E-04
DEBUG_STATS_RL: Vice pre  iter (SEAICE_LSR  2) mean= -7.32602707228794E-04
DEBUG_STATS_RL: Vice pre  iter (SEAICE_LSR  2) S.D.=  9.65742386214621E-04
DEBUG_STATS_RL:                EtaN (DYNAMICS)  min=  0.00000000000000E+00
DEBUG_STATS_RL:                EtaN (DYNAMICS)  max=  0.00000000000000E+00
DEBUG_STATS_RL:                EtaN (DYNAMICS) mean=  0.00000000000000E+00
DEBUG_STATS_RL:                EtaN (DYNAMICS) S.D.=  0.00000000000000E+00
DEBUG_STATS_RL:                Uvel (DYNAMICS)  min=  0.00000000000000E+00
DEBUG_STATS_RL:                Uvel (DYNAMICS)  max=  0.00000000000000E+00
DEBUG_STATS_RL:                Uvel (DYNAMICS) mean=  0.00000000000000E+00
DEBUG_STATS_RL:                Uvel (DYNAMICS) S.D.=  0.00000000000000E+00
DEBUG_STATS_RL:                Vvel (DYNAMICS)  min=  0.00000000000000E+00
DEBUG_STATS_RL:                Vvel (DYNAMICS)  max=  0.00000000000000E+00
DEBUG_STATS_RL:                Vvel (DYNAMICS) mean=  0.00000000000000E+00
DEBUG_STATS_RL:                Vvel (DYNAMICS) S.D.=  0.00000000000000E+00
DEBUG_STATS_RL:                Wvel (DYNAMICS)  min=  0.00000000000000E+00
DEBUG_STATS_RL:                Wvel (DYNAMICS)  max=  0.00000000000000E+00
DEBUG_STATS_RL:                Wvel (DYNAMICS) mean=  0.00000000000000E+00
DEBUG_STATS_RL:                Wvel (DYNAMICS) S.D.=  0.00000000000000E+00
DEBUG_STATS_RL:               Theta (DYNAMICS)  min= -1.41036188602448E+00
DEBUG_STATS_RL:               Theta (DYNAMICS)  max=  1.33330764770508E+01
DEBUG_STATS_RL:               Theta (DYNAMICS) mean=  2.90475522269124E+00
DEBUG_STATS_RL:               Theta (DYNAMICS) S.D.=  2.44037465259698E+00
DEBUG_STATS_RL:                Salt (DYNAMICS)  min=  3.01286983489990E+01
DEBUG_STATS_RL:                Salt (DYNAMICS)  max=  3.54506225585938E+01
DEBUG_STATS_RL:                Salt (DYNAMICS) mean=  3.40845304745500E+01
DEBUG_STATS_RL:                Salt (DYNAMICS) S.D.=  9.00924836964808E-01
DEBUG_STATS_RL:                  Gu (DYNAMICS)  min= -2.00599447531986E-02
DEBUG_STATS_RL:                  Gu (DYNAMICS)  max=  1.04076999541495E-02
DEBUG_STATS_RL:                  Gu (DYNAMICS) mean= -2.58939542765896E-03
DEBUG_STATS_RL:                  Gu (DYNAMICS) S.D.=  4.84472279217175E-03
DEBUG_STATS_RL:                  Gv (DYNAMICS)  min= -2.97181268783620E-02
DEBUG_STATS_RL:                  Gv (DYNAMICS)  max=  1.05795727308992E-02
DEBUG_STATS_RL:                  Gv (DYNAMICS) mean= -1.51075895161939E-03
DEBUG_STATS_RL:                  Gv (DYNAMICS) S.D.=  5.23505354600419E-03
DEBUG_STATS_RL:               GuNm1 (DYNAMICS)  min=  0.00000000000000E+00
DEBUG_STATS_RL:               GuNm1 (DYNAMICS)  max=  0.00000000000000E+00
DEBUG_STATS_RL:               GuNm1 (DYNAMICS) mean=  0.00000000000000E+00
DEBUG_STATS_RL:               GuNm1 (DYNAMICS) S.D.=  0.00000000000000E+00
DEBUG_STATS_RL:               GvNm1 (DYNAMICS)  min=  0.00000000000000E+00
DEBUG_STATS_RL:               GvNm1 (DYNAMICS)  max=  0.00000000000000E+00
DEBUG_STATS_RL:               GvNm1 (DYNAMICS) mean=  0.00000000000000E+00
DEBUG_STATS_RL:               GvNm1 (DYNAMICS) S.D.=  0.00000000000000E+00
DEBUG_STATS_RL:               GtNm1 (DYNAMICS)  min=  0.00000000000000E+00
DEBUG_STATS_RL:               GtNm1 (DYNAMICS)  max=  0.00000000000000E+00
DEBUG_STATS_RL:               GtNm1 (DYNAMICS) mean=  0.00000000000000E+00
DEBUG_STATS_RL:               GtNm1 (DYNAMICS) S.D.=  0.00000000000000E+00
DEBUG_STATS_RL:               GsNm1 (DYNAMICS)  min=  0.00000000000000E+00
DEBUG_STATS_RL:               GsNm1 (DYNAMICS)  max=  0.00000000000000E+00
DEBUG_STATS_RL:               GsNm1 (DYNAMICS) mean=  0.00000000000000E+00
DEBUG_STATS_RL:               GsNm1 (DYNAMICS) S.D.=  0.00000000000000E+00
(PID.TID 0000.0001) SOLVE_FOR_PRESSURE: putPmEinXvector =    F
DEBUG_STATS_RL:    cg2d_b (SOLVE_FOR_PRESSURE)  min= -6.15797366908278E+03
DEBUG_STATS_RL:    cg2d_b (SOLVE_FOR_PRESSURE)  max=  2.03762696322118E+03
DEBUG_STATS_RL:    cg2d_b (SOLVE_FOR_PRESSURE) mean=  2.40637139844087E-14
DEBUG_STATS_RL:    cg2d_b (SOLVE_FOR_PRESSURE) S.D.=  8.03730450548215E+02
 cg2d: Sum(rhs),rhsMax =   7.91033905045424E-16  9.91122157459750E-01
DEBUG_STATS_RL:    cg2d_x (SOLVE_FOR_PRESSURE)  min= -7.77200124675132E-01
DEBUG_STATS_RL:    cg2d_x (SOLVE_FOR_PRESSURE)  max=  2.02552651121663E+00
DEBUG_STATS_RL:    cg2d_x (SOLVE_FOR_PRESSURE) mean= -8.58037095103906E-03
DEBUG_STATS_RL:    cg2d_x (SOLVE_FOR_PRESSURE) S.D.=  4.14863218307968E-01
DEBUG_STATS_RL:          Uvel (THERMODYNAMICS)  min= -1.97613285723242E-02
DEBUG_STATS_RL:          Uvel (THERMODYNAMICS)  max=  1.31897193240012E-02
DEBUG_STATS_RL:          Uvel (THERMODYNAMICS) mean= -7.76915115649382E-04
DEBUG_STATS_RL:          Uvel (THERMODYNAMICS) S.D.=  3.97168834923499E-03
DEBUG_STATS_RL:          Vvel (THERMODYNAMICS)  min= -1.13773235335529E-02
DEBUG_STATS_RL:          Vvel (THERMODYNAMICS)  max=  2.04284639774261E-02
DEBUG_STATS_RL:          Vvel (THERMODYNAMICS) mean=  7.24190880687442E-04
DEBUG_STATS_RL:          Vvel (THERMODYNAMICS) S.D.=  4.28907995073846E-03
DEBUG_STATS_RL:          Wvel (THERMODYNAMICS)  min= -4.27131465138430E-05
DEBUG_STATS_RL:          Wvel (THERMODYNAMICS)  max=  1.16530364658749E-04
DEBUG_STATS_RL:          Wvel (THERMODYNAMICS) mean= -4.07763417598552E-07
DEBUG_STATS_RL:          Wvel (THERMODYNAMICS) S.D.=  1.80149904412009E-05
DEBUG_STATS_RL:         Theta (THERMODYNAMICS)  min= -1.41019615972461E+00
DEBUG_STATS_RL:         Theta (THERMODYNAMICS)  max=  1.32440592110212E+01
DEBUG_STATS_RL:         Theta (THERMODYNAMICS) mean=  2.49735783552472E+00
DEBUG_STATS_RL:         Theta (THERMODYNAMICS) S.D.=  2.45807980529386E+00
DEBUG_STATS_RL:          Salt (THERMODYNAMICS)  min=  2.76560994014067E+01
DEBUG_STATS_RL:          Salt (THERMODYNAMICS)  max=  3.54507778736995E+01
DEBUG_STATS_RL:          Salt (THERMODYNAMICS) mean=  3.39623217189224E+01
DEBUG_STATS_RL:          Salt (THERMODYNAMICS) S.D.=  1.10108958710659E+00
DEBUG_STATS_RL:         GtNm1 (THERMODYNAMICS)  min=  0.00000000000000E+00
DEBUG_STATS_RL:         GtNm1 (THERMODYNAMICS)  max=  0.00000000000000E+00
DEBUG_STATS_RL:         GtNm1 (THERMODYNAMICS) mean=  0.00000000000000E+00
DEBUG_STATS_RL:         GtNm1 (THERMODYNAMICS) S.D.=  0.00000000000000E+00
DEBUG_STATS_RL:         GsNm1 (THERMODYNAMICS)  min=  0.00000000000000E+00
DEBUG_STATS_RL:         GsNm1 (THERMODYNAMICS)  max=  0.00000000000000E+00
DEBUG_STATS_RL:         GsNm1 (THERMODYNAMICS) mean=  0.00000000000000E+00
DEBUG_STATS_RL:         GsNm1 (THERMODYNAMICS) S.D.=  0.00000000000000E+00
(PID.TID 0000.0001)  MDS_WRITE_FIELD: it,rec,kS,kL,kH=       1     2   1   1   1 file=m_sst_step.0000000001
(PID.TID 0000.0001)  MDS_READ_FIELD: opening global file: xx_atemp.effective.0000000001.data
(PID.TID 0000.0001) EXF_SET_FLD: processing field "climsss",  file: SSS_monthly.labsea1979
(PID.TID 0000.0001) EXF_SET_FLD:   myIter, count0, count1:         1      1      2
(PID.TID 0000.0001) EXF_SET_FLD:   first, changed, fac:   F   F    0.49863387978142082
(PID.TID 0000.0001) EXF_SET_FLD: processing field "uwind",  file: u10m.labsea1979
(PID.TID 0000.0001) EXF_SET_FLD:   myIter, count0, count1:         1      1      2
(PID.TID 0000.0001) EXF_SET_FLD:   first, changed, fac:   F   F    0.49863387978142082
(PID.TID 0000.0001) EXF_SET_FLD: processing field "vwind",  file: v10m.labsea1979
(PID.TID 0000.0001) EXF_SET_FLD:   myIter, count0, count1:         1      1      2
(PID.TID 0000.0001) EXF_SET_FLD:   first, changed, fac:   F   F    0.49863387978142082
(PID.TID 0000.0001) EXF_SET_FLD: processing field "atemp",  file: tair.labsea1979
(PID.TID 0000.0001) EXF_SET_FLD:   myIter, count0, count1:         1      1      2
(PID.TID 0000.0001) EXF_SET_FLD:   first, changed, fac:   F   F    0.49863387978142082
(PID.TID 0000.0001) EXF_SET_FLD: processing field "aqh",  file: qa.labsea1979
(PID.TID 0000.0001) EXF_SET_FLD:   myIter, count0, count1:         1      1      2
(PID.TID 0000.0001) EXF_SET_FLD:   first, changed, fac:   F   F    0.49863387978142082
(PID.TID 0000.0001) EXF_SET_FLD: processing field "precip",  file: prate.labsea1979
(PID.TID 0000.0001) EXF_SET_FLD:   myIter, count0, count1:         1      1      2
(PID.TID 0000.0001) EXF_SET_FLD:   first, changed, fac:   F   F    0.49863387978142082
(PID.TID 0000.0001) EXF_SET_FLD: processing field "swdown",  file: fsh.labsea1979
(PID.TID 0000.0001) EXF_SET_FLD:   myIter, count0, count1:         1      1      2
(PID.TID 0000.0001) EXF_SET_FLD:   first, changed, fac:   F   F    0.49863387978142082
(PID.TID 0000.0001) EXF_SET_FLD: processing field "lwdown",  file: flo.labsea1979
(PID.TID 0000.0001) EXF_SET_FLD:   myIter, count0, count1:         1      1      2
(PID.TID 0000.0001) EXF_SET_FLD:   first, changed, fac:   F   F    0.49863387978142082
DEBUG_STATS_RL: Uice pre  iter (SEAICE_LSR  1)  min= -1.15942749827435E-03
DEBUG_STATS_RL: Uice pre  iter (SEAICE_LSR  1)  max=  1.20418167656252E-02
DEBUG_STATS_RL: Uice pre  iter (SEAICE_LSR  1) mean=  2.64506216410235E-03
DEBUG_STATS_RL: Uice pre  iter (SEAICE_LSR  1) S.D.=  3.13774756817759E-03
DEBUG_STATS_RL: Vice pre  iter (SEAICE_LSR  1)  min= -5.99336397479914E-03
DEBUG_STATS_RL: Vice pre  iter (SEAICE_LSR  1)  max=  4.08760906980194E-03
DEBUG_STATS_RL: Vice pre  iter (SEAICE_LSR  1) mean= -1.18494610218030E-03
DEBUG_STATS_RL: Vice pre  iter (SEAICE_LSR  1) S.D.=  2.51572614879252E-03
DEBUG_STATS_RL: Uice pre  iter (SEAICE_LSR  2)  min= -1.66461661595648E-03
DEBUG_STATS_RL: Uice pre  iter (SEAICE_LSR  2)  max=  2.05817158221004E-01
DEBUG_STATS_RL: Uice pre  iter (SEAICE_LSR  2) mean=  2.18937658776827E-02
DEBUG_STATS_RL: Uice pre  iter (SEAICE_LSR  2) S.D.=  4.15140060700838E-02
DEBUG_STATS_RL: Vice pre  iter (SEAICE_LSR  2)  min= -1.15170217246348E-02
DEBUG_STATS_RL: Vice pre  iter (SEAICE_LSR  2)  max=  6.02623623339015E-02
DEBUG_STATS_RL: Vice pre  iter (SEAICE_LSR  2) mean= -5.88552864188539E-04
DEBUG_STATS_RL: Vice pre  iter (SEAICE_LSR  2) S.D.=  1.21471679479938E-02
DEBUG_STATS_RL:                EtaN (DYNAMICS)  min= -7.91800933896177E-02
DEBUG_STATS_RL:                EtaN (DYNAMICS)  max=  2.06357890624784E-01
DEBUG_STATS_RL:                EtaN (DYNAMICS) mean= -8.74156541733471E-04
DEBUG_STATS_RL:                EtaN (DYNAMICS) S.D.=  4.22657013639480E-02
DEBUG_STATS_RL:                Uvel (DYNAMICS)  min= -1.97613285723242E-02
DEBUG_STATS_RL:                Uvel (DYNAMICS)  max=  1.31897193240012E-02
DEBUG_STATS_RL:                Uvel (DYNAMICS) mean= -7.76915115649382E-04
DEBUG_STATS_RL:                Uvel (DYNAMICS) S.D.=  3.97168834923499E-03
DEBUG_STATS_RL:                Vvel (DYNAMICS)  min= -1.13773235335529E-02
DEBUG_STATS_RL:                Vvel (DYNAMICS)  max=  2.04284639774261E-02
DEBUG_STATS_RL:                Vvel (DYNAMICS) mean=  7.24190880687442E-04
DEBUG_STATS_RL:                Vvel (DYNAMICS) S.D.=  4.28907995073846E-03
DEBUG_STATS_RL:                Wvel (DYNAMICS)  min= -4.27131465138430E-05
DEBUG_STATS_RL:                Wvel (DYNAMICS)  max=  1.16530364658749E-04
DEBUG_STATS_RL:                Wvel (DYNAMICS) mean= -4.07763417598552E-07
DEBUG_STATS_RL:                Wvel (DYNAMICS) S.D.=  1.80149904412009E-05
DEBUG_STATS_RL:               Theta (DYNAMICS)  min= -1.41019615972461E+00
DEBUG_STATS_RL:               Theta (DYNAMICS)  max=  1.32440592110212E+01
DEBUG_STATS_RL:               Theta (DYNAMICS) mean=  2.49735783552472E+00
DEBUG_STATS_RL:               Theta (DYNAMICS) S.D.=  2.45807980529386E+00
DEBUG_STATS_RL:                Salt (DYNAMICS)  min=  2.76560994014067E+01
DEBUG_STATS_RL:                Salt (DYNAMICS)  max=  3.54507778736995E+01
DEBUG_STATS_RL:                Salt (DYNAMICS) mean=  3.39623217189224E+01
DEBUG_STATS_RL:                Salt (DYNAMICS) S.D.=  1.10108958710659E+00
DEBUG_STATS_RL:                  Gu (DYNAMICS)  min= -2.89112950168885E-02
DEBUG_STATS_RL:                  Gu (DYNAMICS)  max=  3.25741619058360E-02
DEBUG_STATS_RL:                  Gu (DYNAMICS) mean= -2.32520622242414E-03
DEBUG_STATS_RL:                  Gu (DYNAMICS) S.D.=  7.09155735785876E-03
DEBUG_STATS_RL:                  Gv (DYNAMICS)  min= -3.71241625510621E-02
DEBUG_STATS_RL:                  Gv (DYNAMICS)  max=  1.83230442031147E-02
DEBUG_STATS_RL:                  Gv (DYNAMICS) mean= -1.89259208721688E-03
DEBUG_STATS_RL:                  Gv (DYNAMICS) S.D.=  7.31046974975507E-03
DEBUG_STATS_RL:               GuNm1 (DYNAMICS)  min= -1.80289983389196E-07
DEBUG_STATS_RL:               GuNm1 (DYNAMICS)  max=  1.49251399870334E-07
DEBUG_STATS_RL:               GuNm1 (DYNAMICS) mean=  3.41794292088730E-09
DEBUG_STATS_RL:               GuNm1 (DYNAMICS) S.D.=  3.19693794884499E-08
DEBUG_STATS_RL:               GvNm1 (DYNAMICS)  min= -5.11118133734402E-08
DEBUG_STATS_RL:               GvNm1 (DYNAMICS)  max=  4.88281454922596E-08
DEBUG_STATS_RL:               GvNm1 (DYNAMICS) mean= -4.70245831256227E-11
DEBUG_STATS_RL:               GvNm1 (DYNAMICS) S.D.=  1.42003013108260E-08
DEBUG_STATS_RL:               GtNm1 (DYNAMICS)  min=  0.00000000000000E+00
DEBUG_STATS_RL:               GtNm1 (DYNAMICS)  max=  0.00000000000000E+00
DEBUG_STATS_RL:               GtNm1 (DYNAMICS) mean=  0.00000000000000E+00
DEBUG_STATS_RL:               GtNm1 (DYNAMICS) S.D.=  0.00000000000000E+00
DEBUG_STATS_RL:               GsNm1 (DYNAMICS)  min=  0.00000000000000E+00
DEBUG_STATS_RL:               GsNm1 (DYNAMICS)  max=  0.00000000000000E+00
DEBUG_STATS_RL:               GsNm1 (DYNAMICS) mean=  0.00000000000000E+00
DEBUG_STATS_RL:               GsNm1 (DYNAMICS) S.D.=  0.00000000000000E+00
DEBUG_STATS_RL:    cg2d_b (SOLVE_FOR_PRESSURE)  min= -7.40048897093643E+03
DEBUG_STATS_RL:    cg2d_b (SOLVE_FOR_PRESSURE)  max=  2.33428667016753E+03
DEBUG_STATS_RL:    cg2d_b (SOLVE_FOR_PRESSURE) mean=  7.46543567705279E-14
DEBUG_STATS_RL:    cg2d_b (SOLVE_FOR_PRESSURE) S.D.=  9.39768538610487E+02
 cg2d: Sum(rhs),rhsMax =   1.90819582357449E-15  1.19110424780756E+00
DEBUG_STATS_RL:    cg2d_x (SOLVE_FOR_PRESSURE)  min= -1.25977767814718E+00
DEBUG_STATS_RL:    cg2d_x (SOLVE_FOR_PRESSURE)  max=  2.83276936769453E+00
DEBUG_STATS_RL:    cg2d_x (SOLVE_FOR_PRESSURE) mean= -1.56118539430578E-02
DEBUG_STATS_RL:    cg2d_x (SOLVE_FOR_PRESSURE) S.D.=  6.63083405130438E-01
DEBUG_STATS_RL:          Uvel (THERMODYNAMICS)  min= -4.02432897586638E-02
DEBUG_STATS_RL:          Uvel (THERMODYNAMICS)  max=  3.23458159885822E-02
DEBUG_STATS_RL:          Uvel (THERMODYNAMICS) mean=  6.75465330201847E-04
DEBUG_STATS_RL:          Uvel (THERMODYNAMICS) S.D.=  7.33761384667226E-03
DEBUG_STATS_RL:          Vvel (THERMODYNAMICS)  min= -1.64862319058737E-02
DEBUG_STATS_RL:          Vvel (THERMODYNAMICS)  max=  4.21759382970966E-02
DEBUG_STATS_RL:          Vvel (THERMODYNAMICS) mean=  1.82858022907551E-03
DEBUG_STATS_RL:          Vvel (THERMODYNAMICS) S.D.=  8.08424055894111E-03
DEBUG_STATS_RL:          Wvel (THERMODYNAMICS)  min= -6.56490529174625E-05
DEBUG_STATS_RL:          Wvel (THERMODYNAMICS)  max=  1.68683217295642E-04
DEBUG_STATS_RL:          Wvel (THERMODYNAMICS) mean= -4.30739495111995E-07
DEBUG_STATS_RL:          Wvel (THERMODYNAMICS) S.D.=  1.89945067258328E-05
DEBUG_STATS_RL:         Theta (THERMODYNAMICS)  min= -1.83156742552816E+00
DEBUG_STATS_RL:         Theta (THERMODYNAMICS)  max=  1.32606612249659E+01
DEBUG_STATS_RL:         Theta (THERMODYNAMICS) mean=  2.43057765558689E+00
DEBUG_STATS_RL:         Theta (THERMODYNAMICS) S.D.=  2.55246643542934E+00
DEBUG_STATS_RL:          Salt (THERMODYNAMICS)  min=  2.76092906345221E+01
DEBUG_STATS_RL:          Salt (THERMODYNAMICS)  max=  3.54509236522671E+01
DEBUG_STATS_RL:          Salt (THERMODYNAMICS) mean=  3.39413044254425E+01
DEBUG_STATS_RL:          Salt (THERMODYNAMICS) S.D.=  1.14495872836749E+00
DEBUG_STATS_RL:         GtNm1 (THERMODYNAMICS)  min=  0.00000000000000E+00
DEBUG_STATS_RL:         GtNm1 (THERMODYNAMICS)  max=  0.00000000000000E+00
DEBUG_STATS_RL:         GtNm1 (THERMODYNAMICS) mean=  0.00000000000000E+00
DEBUG_STATS_RL:         GtNm1 (THERMODYNAMICS) S.D.=  0.00000000000000E+00
DEBUG_STATS_RL:         GsNm1 (THERMODYNAMICS)  min=  0.00000000000000E+00
DEBUG_STATS_RL:         GsNm1 (THERMODYNAMICS)  max=  0.00000000000000E+00
DEBUG_STATS_RL:         GsNm1 (THERMODYNAMICS) mean=  0.00000000000000E+00
DEBUG_STATS_RL:         GsNm1 (THERMODYNAMICS) S.D.=  0.00000000000000E+00
(PID.TID 0000.0001)  MDS_WRITE_FIELD: it,rec,kS,kL,kH=       1     3   1   1   1 file=m_sst_step.0000000001
(PID.TID 0000.0001)  MDS_READ_FIELD: opening global file: xx_atemp.effective.0000000001.data
(PID.TID 0000.0001) EXF_SET_FLD: processing field "climsss",  file: SSS_monthly.labsea1979
(PID.TID 0000.0001) EXF_SET_FLD:   myIter, count0, count1:         2      1      2
(PID.TID 0000.0001) EXF_SET_FLD:   first, changed, fac:   F   F    0.49726775956284153
(PID.TID 0000.0001) EXF_SET_FLD: processing field "uwind",  file: u10m.labsea1979
(PID.TID 0000.0001) EXF_SET_FLD:   myIter, count0, count1:         2      1      2
(PID.TID 0000.0001) EXF_SET_FLD:   first, changed, fac:   F   F    0.49726775956284153
(PID.TID 0000.0001) EXF_SET_FLD: processing field "vwind",  file: v10m.labsea1979
(PID.TID 0000.0001) EXF_SET_FLD:   myIter, count0, count1:         2      1      2
(PID.TID 0000.0001) EXF_SET_FLD:   first, changed, fac:   F   F    0.49726775956284153
(PID.TID 0000.0001) EXF_SET_FLD: processing field "atemp",  file: tair.labsea1979
(PID.TID 0000.0001) EXF_SET_FLD:   myIter, count0, count1:         2      1      2
(PID.TID 0000.0001) EXF_SET_FLD:   first, changed, fac:   F   F    0.49726775956284153
(PID.TID 0000.0001) EXF_SET_FLD: processing field "aqh",  file: qa.labsea1979
(PID.TID 0000.0001) EXF_SET_FLD:   myIter, count0, count1:         2      1      2
(PID.TID 0000.0001) EXF_SET_FLD:   first, changed, fac:   F   F    0.49726775956284153
(PID.TID 0000.0001) EXF_SET_FLD: processing field "precip",  file: prate.labsea1979
(PID.TID 0000.0001) EXF_SET_FLD:   myIter, count0, count1:         2      1      2
(PID.TID 0000.0001) EXF_SET_FLD:   first, changed, fac:   F   F    0.49726775956284153
(PID.TID 0000.0001) EXF_SET_FLD: processing field "swdown",  file: fsh.labsea1979
(PID.TID 0000.0001) EXF_SET_FLD:   myIter, count0, count1:         2      1      2
(PID.TID 0000.0001) EXF_SET_FLD:   first, changed, fac:   F   F    0.49726775956284153
(PID.TID 0000.0001) EXF_SET_FLD: processing field "lwdown",  file: flo.labsea1979
(PID.TID 0000.0001) EXF_SET_FLD:   myIter, count0, count1:         2      1      2
(PID.TID 0000.0001) EXF_SET_FLD:   first, changed, fac:   F   F    0.49726775956284153
DEBUG_STATS_RL: Uice pre  iter (SEAICE_LSR  1)  min= -2.72590911190534E-03
DEBUG_STATS_RL: Uice pre  iter (SEAICE_LSR  1)  max=  1.84821888363614E-01
DEBUG_STATS_RL: Uice pre  iter (SEAICE_LSR  1) mean=  4.43171854917562E-02
DEBUG_STATS_RL: Uice pre  iter (SEAICE_LSR  1) S.D.=  5.55969094951516E-02
DEBUG_STATS_RL: Vice pre  iter (SEAICE_LSR  1)  min= -3.16987209121493E-02
DEBUG_STATS_RL: Vice pre  iter (SEAICE_LSR  1)  max=  6.25866618672353E-02
DEBUG_STATS_RL: Vice pre  iter (SEAICE_LSR  1) mean= -5.92146683104180E-03
DEBUG_STATS_RL: Vice pre  iter (SEAICE_LSR  1) S.D.=  1.77615498821878E-02
DEBUG_STATS_RL: Uice pre  iter (SEAICE_LSR  2)  min= -3.50206878135077E-03
DEBUG_STATS_RL: Uice pre  iter (SEAICE_LSR  2)  max=  1.92025155896599E-01
DEBUG_STATS_RL: Uice pre  iter (SEAICE_LSR  2) mean=  5.29589963329985E-02
DEBUG_STATS_RL: Uice pre  iter (SEAICE_LSR  2) S.D.=  5.86189159298835E-02
DEBUG_STATS_RL: Vice pre  iter (SEAICE_LSR  2)  min= -6.12456112266898E-02
DEBUG_STATS_RL: Vice pre  iter (SEAICE_LSR  2)  max=  9.55317561460540E-02
DEBUG_STATS_RL: Vice pre  iter (SEAICE_LSR  2) mean= -1.11523016934632E-02
DEBUG_STATS_RL: Vice pre  iter (SEAICE_LSR  2) S.D.=  2.73762100036916E-02
DEBUG_STATS_RL:                EtaN (DYNAMICS)  min= -1.28344439274948E-01
DEBUG_STATS_RL:                EtaN (DYNAMICS)  max=  2.88598696737288E-01
DEBUG_STATS_RL:                EtaN (DYNAMICS) mean= -1.59051448134172E-03
DEBUG_STATS_RL:                EtaN (DYNAMICS) S.D.=  6.75540369544845E-02
DEBUG_STATS_RL:                Uvel (DYNAMICS)  min= -4.02432897586638E-02
DEBUG_STATS_RL:                Uvel (DYNAMICS)  max=  3.23458159885822E-02
DEBUG_STATS_RL:                Uvel (DYNAMICS) mean=  6.75465330201847E-04
DEBUG_STATS_RL:                Uvel (DYNAMICS) S.D.=  7.33761384667226E-03
DEBUG_STATS_RL:                Vvel (DYNAMICS)  min= -1.64862319058737E-02
DEBUG_STATS_RL:                Vvel (DYNAMICS)  max=  4.21759382970966E-02
DEBUG_STATS_RL:                Vvel (DYNAMICS) mean=  1.82858022907551E-03
DEBUG_STATS_RL:                Vvel (DYNAMICS) S.D.=  8.08424055894111E-03
DEBUG_STATS_RL:                Wvel (DYNAMICS)  min= -6.56490529174625E-05
DEBUG_STATS_RL:                Wvel (DYNAMICS)  max=  1.68683217295642E-04
DEBUG_STATS_RL:                Wvel (DYNAMICS) mean= -4.30739495111995E-07
DEBUG_STATS_RL:                Wvel (DYNAMICS) S.D.=  1.89945067258328E-05
DEBUG_STATS_RL:               Theta (DYNAMICS)  min= -1.83156742552816E+00
DEBUG_STATS_RL:               Theta (DYNAMICS)  max=  1.32606612249659E+01
DEBUG_STATS_RL:               Theta (DYNAMICS) mean=  2.43057765558689E+00
DEBUG_STATS_RL:               Theta (DYNAMICS) S.D.=  2.55246643542934E+00
DEBUG_STATS_RL:                Salt (DYNAMICS)  min=  2.76092906345221E+01
DEBUG_STATS_RL:                Salt (DYNAMICS)  max=  3.54509236522671E+01
DEBUG_STATS_RL:                Salt (DYNAMICS) mean=  3.39413044254425E+01
DEBUG_STATS_RL:                Salt (DYNAMICS) S.D.=  1.14495872836749E+00
DEBUG_STATS_RL:                  Gu (DYNAMICS)  min= -3.23510557472027E-02
DEBUG_STATS_RL:                  Gu (DYNAMICS)  max=  5.80377411255926E-02
DEBUG_STATS_RL:                  Gu (DYNAMICS) mean= -2.97572069535658E-04
DEBUG_STATS_RL:                  Gu (DYNAMICS) S.D.=  9.92934455351851E-03
DEBUG_STATS_RL:                  Gv (DYNAMICS)  min= -4.01882757136259E-02
DEBUG_STATS_RL:                  Gv (DYNAMICS)  max=  3.49568132071785E-02
DEBUG_STATS_RL:                  Gv (DYNAMICS) mean= -2.47632966121674E-03
DEBUG_STATS_RL:                  Gv (DYNAMICS) S.D.=  9.60357312382227E-03
DEBUG_STATS_RL:               GuNm1 (DYNAMICS)  min= -2.64915263690509E-07
DEBUG_STATS_RL:               GuNm1 (DYNAMICS)  max=  1.75889100747608E-07
DEBUG_STATS_RL:               GuNm1 (DYNAMICS) mean=  2.42191647086384E-09
DEBUG_STATS_RL:               GuNm1 (DYNAMICS) S.D.=  4.49076324943089E-08
DEBUG_STATS_RL:               GvNm1 (DYNAMICS)  min= -8.47298200114907E-08
DEBUG_STATS_RL:               GvNm1 (DYNAMICS)  max=  7.67749697778854E-08
DEBUG_STATS_RL:               GvNm1 (DYNAMICS) mean= -4.71533361262463E-10
DEBUG_STATS_RL:               GvNm1 (DYNAMICS) S.D.=  2.04113373444223E-08
DEBUG_STATS_RL:               GtNm1 (DYNAMICS)  min=  0.00000000000000E+00
DEBUG_STATS_RL:               GtNm1 (DYNAMICS)  max=  0.00000000000000E+00
DEBUG_STATS_RL:               GtNm1 (DYNAMICS) mean=  0.00000000000000E+00
DEBUG_STATS_RL:               GtNm1 (DYNAMICS) S.D.=  0.00000000000000E+00
DEBUG_STATS_RL:               GsNm1 (DYNAMICS)  min=  0.00000000000000E+00
DEBUG_STATS_RL:               GsNm1 (DYNAMICS)  max=  0.00000000000000E+00
DEBUG_STATS_RL:               GsNm1 (DYNAMICS) mean=  0.00000000000000E+00
DEBUG_STATS_RL:               GsNm1 (DYNAMICS) S.D.=  0.00000000000000E+00
DEBUG_STATS_RL:    cg2d_b (SOLVE_FOR_PRESSURE)  min= -7.51696131718242E+03
DEBUG_STATS_RL:    cg2d_b (SOLVE_FOR_PRESSURE)  max=  2.21291016221058E+03
DEBUG_STATS_RL:    cg2d_b (SOLVE_FOR_PRESSURE) mean=  4.81274279688175E-13
DEBUG_STATS_RL:    cg2d_b (SOLVE_FOR_PRESSURE) S.D.=  9.35355930257490E+02
 cg2d: Sum(rhs),rhsMax =   8.96852037080009E-15  1.20985040186718E+00
DEBUG_STATS_RL:    cg2d_x (SOLVE_FOR_PRESSURE)  min= -1.39137659519100E+00
DEBUG_STATS_RL:    cg2d_x (SOLVE_FOR_PRESSURE)  max=  3.06244143644326E+00
DEBUG_STATS_RL:    cg2d_x (SOLVE_FOR_PRESSURE) mean= -2.04738907199442E-02
DEBUG_STATS_RL:    cg2d_x (SOLVE_FOR_PRESSURE) S.D.=  7.54254787473812E-01
DEBUG_STATS_RL:          Uvel (THERMODYNAMICS)  min= -4.85747443135312E-02
DEBUG_STATS_RL:          Uvel (THERMODYNAMICS)  max=  6.48566534974137E-02
DEBUG_STATS_RL:          Uvel (THERMODYNAMICS) mean=  2.83347825459530E-03
DEBUG_STATS_RL:          Uvel (THERMODYNAMICS) S.D.=  1.04406948546673E-02
DEBUG_STATS_RL:          Vvel (THERMODYNAMICS)  min= -2.93630589506318E-02
DEBUG_STATS_RL:          Vvel (THERMODYNAMICS)  max=  5.51081422495765E-02
DEBUG_STATS_RL:          Vvel (THERMODYNAMICS) mean=  1.89398823345595E-03
DEBUG_STATS_RL:          Vvel (THERMODYNAMICS) S.D.=  1.13685531753100E-02
DEBUG_STATS_RL:          Wvel (THERMODYNAMICS)  min= -1.01835019199991E-04
DEBUG_STATS_RL:          Wvel (THERMODYNAMICS)  max=  2.18299385766770E-04
DEBUG_STATS_RL:          Wvel (THERMODYNAMICS) mean= -3.58449213336794E-07
DEBUG_STATS_RL:          Wvel (THERMODYNAMICS) S.D.=  2.04428902649926E-05
DEBUG_STATS_RL:         Theta (THERMODYNAMICS)  min= -1.93250363389783E+00
DEBUG_STATS_RL:         Theta (THERMODYNAMICS)  max=  1.32631363173882E+01
DEBUG_STATS_RL:         Theta (THERMODYNAMICS) mean=  2.41867029854828E+00
DEBUG_STATS_RL:         Theta (THERMODYNAMICS) S.D.=  2.57126546321788E+00
DEBUG_STATS_RL:          Salt (THERMODYNAMICS)  min=  2.76143299539290E+01
DEBUG_STATS_RL:          Salt (THERMODYNAMICS)  max=  3.54510577106203E+01
DEBUG_STATS_RL:          Salt (THERMODYNAMICS) mean=  3.39375783473296E+01
DEBUG_STATS_RL:          Salt (THERMODYNAMICS) S.D.=  1.15271478316346E+00
DEBUG_STATS_RL:         GtNm1 (THERMODYNAMICS)  min=  0.00000000000000E+00
DEBUG_STATS_RL:         GtNm1 (THERMODYNAMICS)  max=  0.00000000000000E+00
DEBUG_STATS_RL:         GtNm1 (THERMODYNAMICS) mean=  0.00000000000000E+00
DEBUG_STATS_RL:         GtNm1 (THERMODYNAMICS) S.D.=  0.00000000000000E+00
DEBUG_STATS_RL:         GsNm1 (THERMODYNAMICS)  min=  0.00000000000000E+00
DEBUG_STATS_RL:         GsNm1 (THERMODYNAMICS)  max=  0.00000000000000E+00
DEBUG_STATS_RL:         GsNm1 (THERMODYNAMICS) mean=  0.00000000000000E+00
DEBUG_STATS_RL:         GsNm1 (THERMODYNAMICS) S.D.=  0.00000000000000E+00
(PID.TID 0000.0001)  MDS_WRITE_FIELD: it,rec,kS,kL,kH=       1     4   1   1   1 file=m_sst_step.0000000001
(PID.TID 0000.0001)  MDS_READ_FIELD: opening global file: xx_atemp.effective.0000000001.data
(PID.TID 0000.0001) EXF_SET_FLD: processing field "climsss",  file: SSS_monthly.labsea1979
(PID.TID 0000.0001) EXF_SET_FLD:   myIter, count0, count1:         3      1      2
(PID.TID 0000.0001) EXF_SET_FLD:   first, changed, fac:   F   F    0.49590163934426235
(PID.TID 0000.0001) EXF_SET_FLD: processing field "uwind",  file: u10m.labsea1979
(PID.TID 0000.0001) EXF_SET_FLD:   myIter, count0, count1:         3      1      2
(PID.TID 0000.0001) EXF_SET_FLD:   first, changed, fac:   F   F    0.49590163934426235
(PID.TID 0000.0001) EXF_SET_FLD: processing field "vwind",  file: v10m.labsea1979
(PID.TID 0000.0001) EXF_SET_FLD:   myIter, count0, count1:         3      1      2
(PID.TID 0000.0001) EXF_SET_FLD:   first, changed, fac:   F   F    0.49590163934426235
(PID.TID 0000.0001) EXF_SET_FLD: processing field "atemp",  file: tair.labsea1979
(PID.TID 0000.0001) EXF_SET_FLD:   myIter, count0, count1:         3      1      2
(PID.TID 0000.0001) EXF_SET_FLD:   first, changed, fac:   F   F    0.49590163934426235
(PID.TID 0000.0001) EXF_SET_FLD: processing field "aqh",  file: qa.labsea1979
(PID.TID 0000.0001) EXF_SET_FLD:   myIter, count0, count1:         3      1      2
(PID.TID 0000.0001) EXF_SET_FLD:   first, changed, fac:   F   F    0.49590163934426235
(PID.TID 0000.0001) EXF_SET_FLD: processing field "precip",  file: prate.labsea1979
(PID.TID 0000.0001) EXF_SET_FLD:   myIter, count0, count1:         3      1      2
(PID.TID 0000.0001) EXF_SET_FLD:   first, changed, fac:   F   F    0.49590163934426235
(PID.TID 0000.0001) EXF_SET_FLD: processing field "swdown",  file: fsh.labsea1979
(PID.TID 0000.0001) EXF_SET_FLD:   myIter, count0, count1:         3      1      2
(PID.TID 0000.0001) EXF_SET_FLD:   first, changed, fac:   F   F    0.49590163934426235
(PID.TID 0000.0001) EXF_SET_FLD: processing field "lwdown",  file: flo.labsea1979
(PID.TID 0000.0001) EXF_SET_FLD:   myIter, count0, count1:         3      1      2
(PID.TID 0000.0001) EXF_SET_FLD:   first, changed, fac:   F   F    0.49590163934426235
DEBUG_STATS_RL: Uice pre  iter (SEAICE_LSR  1)  min= -4.89522325596278E-03
DEBUG_STATS_RL: Uice pre  iter (SEAICE_LSR  1)  max=  1.61355517756085E-01
DEBUG_STATS_RL: Uice pre  iter (SEAICE_LSR  1) mean=  5.67051326037466E-02
DEBUG_STATS_RL: Uice pre  iter (SEAICE_LSR  1) S.D.=  5.73816154994712E-02
DEBUG_STATS_RL: Vice pre  iter (SEAICE_LSR  1)  min= -1.51246540995864E-01
DEBUG_STATS_RL: Vice pre  iter (SEAICE_LSR  1)  max=  8.91076561218488E-02
DEBUG_STATS_RL: Vice pre  iter (SEAICE_LSR  1) mean= -1.97403473773695E-02
DEBUG_STATS_RL: Vice pre  iter (SEAICE_LSR  1) S.D.=  3.94189649072976E-02
DEBUG_STATS_RL: Uice pre  iter (SEAICE_LSR  2)  min= -5.42054480416312E-03
DEBUG_STATS_RL: Uice pre  iter (SEAICE_LSR  2)  max=  2.02641844081809E-01
DEBUG_STATS_RL: Uice pre  iter (SEAICE_LSR  2) mean=  6.47762112262331E-02
DEBUG_STATS_RL: Uice pre  iter (SEAICE_LSR  2) S.D.=  6.71608790533027E-02
DEBUG_STATS_RL: Vice pre  iter (SEAICE_LSR  2)  min= -1.45601126352238E-01
DEBUG_STATS_RL: Vice pre  iter (SEAICE_LSR  2)  max=  1.04145470460116E-01
DEBUG_STATS_RL: Vice pre  iter (SEAICE_LSR  2) mean= -2.31827417444413E-02
DEBUG_STATS_RL: Vice pre  iter (SEAICE_LSR  2) S.D.=  4.33109039414989E-02
DEBUG_STATS_RL:                EtaN (DYNAMICS)  min= -1.41751558253290E-01
DEBUG_STATS_RL:                EtaN (DYNAMICS)  max=  3.11997375243822E-01
DEBUG_STATS_RL:                EtaN (DYNAMICS) mean= -2.08585218630999E-03
DEBUG_STATS_RL:                EtaN (DYNAMICS) S.D.=  7.68424535916105E-02
DEBUG_STATS_RL:                Uvel (DYNAMICS)  min= -4.85747443135312E-02
DEBUG_STATS_RL:                Uvel (DYNAMICS)  max=  6.48566534974137E-02
DEBUG_STATS_RL:                Uvel (DYNAMICS) mean=  2.83347825459530E-03
DEBUG_STATS_RL:                Uvel (DYNAMICS) S.D.=  1.04406948546673E-02
DEBUG_STATS_RL:                Vvel (DYNAMICS)  min= -2.93630589506318E-02
DEBUG_STATS_RL:                Vvel (DYNAMICS)  max=  5.51081422495765E-02
DEBUG_STATS_RL:                Vvel (DYNAMICS) mean=  1.89398823345595E-03
DEBUG_STATS_RL:                Vvel (DYNAMICS) S.D.=  1.13685531753100E-02
DEBUG_STATS_RL:                Wvel (DYNAMICS)  min= -1.01835019199991E-04
DEBUG_STATS_RL:                Wvel (DYNAMICS)  max=  2.18299385766770E-04
DEBUG_STATS_RL:                Wvel (DYNAMICS) mean= -3.58449213336794E-07
DEBUG_STATS_RL:                Wvel (DYNAMICS) S.D.=  2.04428902649926E-05
DEBUG_STATS_RL:               Theta (DYNAMICS)  min= -1.93250363389783E+00
DEBUG_STATS_RL:               Theta (DYNAMICS)  max=  1.32631363173882E+01
DEBUG_STATS_RL:               Theta (DYNAMICS) mean=  2.41867029854828E+00
DEBUG_STATS_RL:               Theta (DYNAMICS) S.D.=  2.57126546321788E+00
DEBUG_STATS_RL:                Salt (DYNAMICS)  min=  2.76143299539290E+01
DEBUG_STATS_RL:                Salt (DYNAMICS)  max=  3.54510577106203E+01
DEBUG_STATS_RL:                Salt (DYNAMICS) mean=  3.39375783473296E+01
DEBUG_STATS_RL:                Salt (DYNAMICS) S.D.=  1.15271478316346E+00
DEBUG_STATS_RL:                  Gu (DYNAMICS)  min= -3.31660092548312E-02
DEBUG_STATS_RL:                  Gu (DYNAMICS)  max=  7.71641715782459E-02
DEBUG_STATS_RL:                  Gu (DYNAMICS) mean=  1.79729889202300E-03
DEBUG_STATS_RL:                  Gu (DYNAMICS) S.D.=  1.23549872720773E-02
DEBUG_STATS_RL:                  Gv (DYNAMICS)  min= -6.51102265936879E-02
DEBUG_STATS_RL:                  Gv (DYNAMICS)  max=  4.74792371894024E-02
DEBUG_STATS_RL:                  Gv (DYNAMICS) mean= -3.61268002205573E-03
DEBUG_STATS_RL:                  Gv (DYNAMICS) S.D.=  1.25565096773820E-02
DEBUG_STATS_RL:               GuNm1 (DYNAMICS)  min= -2.57489899416700E-07
DEBUG_STATS_RL:               GuNm1 (DYNAMICS)  max=  1.89368528479134E-07
DEBUG_STATS_RL:               GuNm1 (DYNAMICS) mean=  4.40117076232872E-12
DEBUG_STATS_RL:               GuNm1 (DYNAMICS) S.D.=  4.68821385830896E-08
DEBUG_STATS_RL:               GvNm1 (DYNAMICS)  min= -1.09603640235132E-07
DEBUG_STATS_RL:               GvNm1 (DYNAMICS)  max=  9.62789262154695E-08
DEBUG_STATS_RL:               GvNm1 (DYNAMICS) mean= -8.49526391151911E-10
DEBUG_STATS_RL:               GvNm1 (DYNAMICS) S.D.=  2.55629549792492E-08
DEBUG_STATS_RL:               GtNm1 (DYNAMICS)  min=  0.00000000000000E+00
DEBUG_STATS_RL:               GtNm1 (DYNAMICS)  max=  0.00000000000000E+00
DEBUG_STATS_RL:               GtNm1 (DYNAMICS) mean=  0.00000000000000E+00
DEBUG_STATS_RL:               GtNm1 (DYNAMICS) S.D.=  0.00000000000000E+00
DEBUG_STATS_RL:               GsNm1 (DYNAMICS)  min=  0.00000000000000E+00
DEBUG_STATS_RL:               GsNm1 (DYNAMICS)  max=  0.00000000000000E+00
DEBUG_STATS_RL:               GsNm1 (DYNAMICS) mean=  0.00000000000000E+00
DEBUG_STATS_RL:               GsNm1 (DYNAMICS) S.D.=  0.00000000000000E+00
DEBUG_STATS_RL:    cg2d_b (SOLVE_FOR_PRESSURE)  min= -7.48820843436678E+03
DEBUG_STATS_RL:    cg2d_b (SOLVE_FOR_PRESSURE)  max=  2.19603477106504E+03
DEBUG_STATS_RL:    cg2d_b (SOLVE_FOR_PRESSURE) mean=  2.83838138178301E-13
DEBUG_STATS_RL:    cg2d_b (SOLVE_FOR_PRESSURE) S.D.=  9.20730314173983E+02
 cg2d: Sum(rhs),rhsMax =   6.08540995372664E-15  1.20522264267547E+00
DEBUG_STATS_RL:    cg2d_x (SOLVE_FOR_PRESSURE)  min= -1.31033012419281E+00
DEBUG_STATS_RL:    cg2d_x (SOLVE_FOR_PRESSURE)  max=  3.14089981024831E+00
DEBUG_STATS_RL:    cg2d_x (SOLVE_FOR_PRESSURE) mean= -2.47876044022064E-02
DEBUG_STATS_RL:    cg2d_x (SOLVE_FOR_PRESSURE) S.D.=  7.62604990072555E-01
DEBUG_STATS_RL:          Uvel (THERMODYNAMICS)  min= -4.51228100181554E-02
DEBUG_STATS_RL:          Uvel (THERMODYNAMICS)  max=  8.23946614698059E-02
DEBUG_STATS_RL:          Uvel (THERMODYNAMICS) mean=  4.46006533351385E-03
DEBUG_STATS_RL:          Uvel (THERMODYNAMICS) S.D.=  1.25503402183549E-02
DEBUG_STATS_RL:          Vvel (THERMODYNAMICS)  min= -5.43131072024678E-02
DEBUG_STATS_RL:          Vvel (THERMODYNAMICS)  max=  6.64710959483309E-02
DEBUG_STATS_RL:          Vvel (THERMODYNAMICS) mean=  9.07394962402198E-04
DEBUG_STATS_RL:          Vvel (THERMODYNAMICS) S.D.=  1.42265213439732E-02
DEBUG_STATS_RL:          Wvel (THERMODYNAMICS)  min= -1.50094143875174E-04
DEBUG_STATS_RL:          Wvel (THERMODYNAMICS)  max=  2.67848367720682E-04
DEBUG_STATS_RL:          Wvel (THERMODYNAMICS) mean= -2.83768310636803E-07
DEBUG_STATS_RL:          Wvel (THERMODYNAMICS) S.D.=  2.30755404976197E-05
DEBUG_STATS_RL:         Theta (THERMODYNAMICS)  min= -1.95323356757650E+00
DEBUG_STATS_RL:         Theta (THERMODYNAMICS)  max=  1.32611729219857E+01
DEBUG_STATS_RL:         Theta (THERMODYNAMICS) mean=  2.41624287435038E+00
DEBUG_STATS_RL:         Theta (THERMODYNAMICS) S.D.=  2.57467251754838E+00
DEBUG_STATS_RL:          Salt (THERMODYNAMICS)  min=  2.76192995644599E+01
DEBUG_STATS_RL:          Salt (THERMODYNAMICS)  max=  3.54511687806856E+01
DEBUG_STATS_RL:          Salt (THERMODYNAMICS) mean=  3.39368869963854E+01
DEBUG_STATS_RL:          Salt (THERMODYNAMICS) S.D.=  1.15395653842390E+00
DEBUG_STATS_RL:         GtNm1 (THERMODYNAMICS)  min=  0.00000000000000E+00
DEBUG_STATS_RL:         GtNm1 (THERMODYNAMICS)  max=  0.00000000000000E+00
DEBUG_STATS_RL:         GtNm1 (THERMODYNAMICS) mean=  0.00000000000000E+00
DEBUG_STATS_RL:         GtNm1 (THERMODYNAMICS) S.D.=  0.00000000000000E+00
DEBUG_STATS_RL:         GsNm1 (THERMODYNAMICS)  min=  0.00000000000000E+00
DEBUG_STATS_RL:         GsNm1 (THERMODYNAMICS)  max=  0.00000000000000E+00
DEBUG_STATS_RL:         GsNm1 (THERMODYNAMICS) mean=  0.00000000000000E+00
DEBUG_STATS_RL:         GsNm1 (THERMODYNAMICS) S.D.=  0.00000000000000E+00
(PID.TID 0000.0001)  MDS_WRITE_FIELD: it,rec,kS,kL,kH=       1     5   1   1   1 file=m_sst_step.0000000001
(PID.TID 0000.0001)  MDS_READ_FIELD: opening global file: xx_atemp.effective.0000000001.data
(PID.TID 0000.0001) EXF_SET_FLD: processing field "climsss",  file: SSS_monthly.labsea1979
(PID.TID 0000.0001) EXF_SET_FLD:   myIter, count0, count1:         4      1      2
(PID.TID 0000.0001) EXF_SET_FLD:   first, changed, fac:   F   F    0.49453551912568305
(PID.TID 0000.0001) EXF_SET_FLD: processing field "uwind",  file: u10m.labsea1979
(PID.TID 0000.0001) EXF_SET_FLD:   myIter, count0, count1:         4      1      2
(PID.TID 0000.0001) EXF_SET_FLD:   first, changed, fac:   F   F    0.49453551912568305
(PID.TID 0000.0001) EXF_SET_FLD: processing field "vwind",  file: v10m.labsea1979
(PID.TID 0000.0001) EXF_SET_FLD:   myIter, count0, count1:         4      1      2
(PID.TID 0000.0001) EXF_SET_FLD:   first, changed, fac:   F   F    0.49453551912568305
(PID.TID 0000.0001) EXF_SET_FLD: processing field "atemp",  file: tair.labsea1979
(PID.TID 0000.0001) EXF_SET_FLD:   myIter, count0, count1:         4      1      2
(PID.TID 0000.0001) EXF_SET_FLD:   first, changed, fac:   F   F    0.49453551912568305
(PID.TID 0000.0001) EXF_SET_FLD: processing field "aqh",  file: qa.labsea1979
(PID.TID 0000.0001) EXF_SET_FLD:   myIter, count0, count1:         4      1      2
(PID.TID 0000.0001) EXF_SET_FLD:   first, changed, fac:   F   F    0.49453551912568305
(PID.TID 0000.0001) EXF_SET_FLD: processing field "precip",  file: prate.labsea1979
(PID.TID 0000.0001) EXF_SET_FLD:   myIter, count0, count1:         4      1      2
(PID.TID 0000.0001) EXF_SET_FLD:   first, changed, fac:   F   F    0.49453551912568305
(PID.TID 0000.0001) EXF_SET_FLD: processing field "swdown",  file: fsh.labsea1979
(PID.TID 0000.0001) EXF_SET_FLD:   myIter, count0, count1:         4      1      2
(PID.TID 0000.0001) EXF_SET_FLD:   first, changed, fac:   F   F    0.49453551912568305
(PID.TID 0000.0001) EXF_SET_FLD: processing field "lwdown",  file: flo.labsea1979
(PID.TID 0000.0001) EXF_SET_FLD:   myIter, count0, count1:         4      1      2
(PID.TID 0000.0001) EXF_SET_FLD:   first, changed, fac:   F   F    0.49453551912568305
DEBUG_STATS_RL: Uice pre  iter (SEAICE_LSR  1)  min= -6.64884179985261E-03
DEBUG_STATS_RL: Uice pre  iter (SEAICE_LSR  1)  max=  1.92542735136310E-01
DEBUG_STATS_RL: Uice pre  iter (SEAICE_LSR  1) mean=  6.47686246164783E-02
DEBUG_STATS_RL: Uice pre  iter (SEAICE_LSR  1) S.D.=  6.59732959910107E-02
DEBUG_STATS_RL: Vice pre  iter (SEAICE_LSR  1)  min= -1.58345599530575E-01
DEBUG_STATS_RL: Vice pre  iter (SEAICE_LSR  1)  max=  1.04255589228156E-01
DEBUG_STATS_RL: Vice pre  iter (SEAICE_LSR  1) mean= -2.61122078453672E-02
DEBUG_STATS_RL: Vice pre  iter (SEAICE_LSR  1) S.D.=  4.54292968521138E-02
DEBUG_STATS_RL: Uice pre  iter (SEAICE_LSR  2)  min= -7.39582706170680E-03
DEBUG_STATS_RL: Uice pre  iter (SEAICE_LSR  2)  max=  2.22032103672184E-01
DEBUG_STATS_RL: Uice pre  iter (SEAICE_LSR  2) mean=  6.99701895634397E-02
DEBUG_STATS_RL: Uice pre  iter (SEAICE_LSR  2) S.D.=  7.26089122440266E-02
DEBUG_STATS_RL: Vice pre  iter (SEAICE_LSR  2)  min= -1.71770480186530E-01
DEBUG_STATS_RL: Vice pre  iter (SEAICE_LSR  2)  max=  1.08496327276560E-01
DEBUG_STATS_RL: Vice pre  iter (SEAICE_LSR  2) mean= -3.10609864818164E-02
DEBUG_STATS_RL: Vice pre  iter (SEAICE_LSR  2) S.D.=  4.99863315301893E-02
DEBUG_STATS_RL:                EtaN (DYNAMICS)  min= -1.33494653836017E-01
DEBUG_STATS_RL:                EtaN (DYNAMICS)  max=  3.19990607833277E-01
DEBUG_STATS_RL:                EtaN (DYNAMICS) mean= -2.52532747893214E-03
DEBUG_STATS_RL:                EtaN (DYNAMICS) S.D.=  7.76931608941435E-02
DEBUG_STATS_RL:                Uvel (DYNAMICS)  min= -4.51228100181554E-02
DEBUG_STATS_RL:                Uvel (DYNAMICS)  max=  8.23946614698059E-02
DEBUG_STATS_RL:                Uvel (DYNAMICS) mean=  4.46006533351385E-03
DEBUG_STATS_RL:                Uvel (DYNAMICS) S.D.=  1.25503402183549E-02
DEBUG_STATS_RL:                Vvel (DYNAMICS)  min= -5.43131072024678E-02
DEBUG_STATS_RL:                Vvel (DYNAMICS)  max=  6.64710959483309E-02
DEBUG_STATS_RL:                Vvel (DYNAMICS) mean=  9.07394962402198E-04
DEBUG_STATS_RL:                Vvel (DYNAMICS) S.D.=  1.42265213439732E-02
DEBUG_STATS_RL:                Wvel (DYNAMICS)  min= -1.50094143875174E-04
DEBUG_STATS_RL:                Wvel (DYNAMICS)  max=  2.67848367720682E-04
DEBUG_STATS_RL:                Wvel (DYNAMICS) mean= -2.83768310636803E-07
DEBUG_STATS_RL:                Wvel (DYNAMICS) S.D.=  2.30755404976197E-05
DEBUG_STATS_RL:               Theta (DYNAMICS)  min= -1.95323356757650E+00
DEBUG_STATS_RL:               Theta (DYNAMICS)  max=  1.32611729219857E+01
DEBUG_STATS_RL:               Theta (DYNAMICS) mean=  2.41624287435038E+00
DEBUG_STATS_RL:               Theta (DYNAMICS) S.D.=  2.57467251754838E+00
DEBUG_STATS_RL:                Salt (DYNAMICS)  min=  2.76192995644599E+01
DEBUG_STATS_RL:                Salt (DYNAMICS)  max=  3.54511687806856E+01
DEBUG_STATS_RL:                Salt (DYNAMICS) mean=  3.39368869963854E+01
DEBUG_STATS_RL:                Salt (DYNAMICS) S.D.=  1.15395653842390E+00
DEBUG_STATS_RL:                  Gu (DYNAMICS)  min= -3.06969616935891E-02
DEBUG_STATS_RL:                  Gu (DYNAMICS)  max=  9.72073114926350E-02
DEBUG_STATS_RL:                  Gu (DYNAMICS) mean=  3.10151082316638E-03
DEBUG_STATS_RL:                  Gu (DYNAMICS) S.D.=  1.41052551008812E-02
DEBUG_STATS_RL:                  Gv (DYNAMICS)  min= -9.53132079808372E-02
DEBUG_STATS_RL:                  Gv (DYNAMICS)  max=  5.33682068181780E-02
DEBUG_STATS_RL:                  Gv (DYNAMICS) mean= -5.06243016753749E-03
DEBUG_STATS_RL:                  Gv (DYNAMICS) S.D.=  1.53588463679482E-02
DEBUG_STATS_RL:               GuNm1 (DYNAMICS)  min= -2.35357489189884E-07
DEBUG_STATS_RL:               GuNm1 (DYNAMICS)  max=  1.71456102315373E-07
DEBUG_STATS_RL:               GuNm1 (DYNAMICS) mean= -2.01481983920610E-09
DEBUG_STATS_RL:               GuNm1 (DYNAMICS) S.D.=  4.45062316312276E-08
DEBUG_STATS_RL:               GvNm1 (DYNAMICS)  min= -1.49109605789099E-07
DEBUG_STATS_RL:               GvNm1 (DYNAMICS)  max=  1.05797935490739E-07
DEBUG_STATS_RL:               GvNm1 (DYNAMICS) mean= -1.04937902583913E-09
DEBUG_STATS_RL:               GvNm1 (DYNAMICS) S.D.=  3.09410614930148E-08
DEBUG_STATS_RL:               GtNm1 (DYNAMICS)  min=  0.00000000000000E+00
DEBUG_STATS_RL:               GtNm1 (DYNAMICS)  max=  0.00000000000000E+00
DEBUG_STATS_RL:               GtNm1 (DYNAMICS) mean=  0.00000000000000E+00
DEBUG_STATS_RL:               GtNm1 (DYNAMICS) S.D.=  0.00000000000000E+00
DEBUG_STATS_RL:               GsNm1 (DYNAMICS)  min=  0.00000000000000E+00
DEBUG_STATS_RL:               GsNm1 (DYNAMICS)  max=  0.00000000000000E+00
DEBUG_STATS_RL:               GsNm1 (DYNAMICS) mean=  0.00000000000000E+00
DEBUG_STATS_RL:               GsNm1 (DYNAMICS) S.D.=  0.00000000000000E+00
DEBUG_STATS_RL:    cg2d_b (SOLVE_FOR_PRESSURE)  min= -7.47095948274150E+03
DEBUG_STATS_RL:    cg2d_b (SOLVE_FOR_PRESSURE)  max=  2.18029189648834E+03
DEBUG_STATS_RL:    cg2d_b (SOLVE_FOR_PRESSURE) mean=  4.57210565703766E-13
DEBUG_STATS_RL:    cg2d_b (SOLVE_FOR_PRESSURE) S.D.=  9.11464014140655E+02
 cg2d: Sum(rhs),rhsMax =   8.74300631892311E-15  1.20244643428819E+00
DEBUG_STATS_RL:    cg2d_x (SOLVE_FOR_PRESSURE)  min= -1.27317826454494E+00
DEBUG_STATS_RL:    cg2d_x (SOLVE_FOR_PRESSURE)  max=  3.19622316797554E+00
DEBUG_STATS_RL:    cg2d_x (SOLVE_FOR_PRESSURE) mean= -2.95294169355552E-02
DEBUG_STATS_RL:    cg2d_x (SOLVE_FOR_PRESSURE) S.D.=  7.40273720373106E-01
DEBUG_STATS_RL:          Uvel (THERMODYNAMICS)  min= -3.64296443204000E-02
DEBUG_STATS_RL:          Uvel (THERMODYNAMICS)  max=  8.91662112566488E-02
DEBUG_STATS_RL:          Uvel (THERMODYNAMICS) mean=  5.18186102504854E-03
DEBUG_STATS_RL:          Uvel (THERMODYNAMICS) S.D.=  1.36791834404076E-02
DEBUG_STATS_RL:          Vvel (THERMODYNAMICS)  min= -8.48427067731537E-02
DEBUG_STATS_RL:          Vvel (THERMODYNAMICS)  max=  7.15709637633454E-02
DEBUG_STATS_RL:          Vvel (THERMODYNAMICS) mean= -6.25663991255486E-04
DEBUG_STATS_RL:          Vvel (THERMODYNAMICS) S.D.=  1.65568599029665E-02
DEBUG_STATS_RL:          Wvel (THERMODYNAMICS)  min= -2.02998023749470E-04
DEBUG_STATS_RL:          Wvel (THERMODYNAMICS)  max=  3.07634744219602E-04
DEBUG_STATS_RL:          Wvel (THERMODYNAMICS) mean= -2.14485636604466E-07
DEBUG_STATS_RL:          Wvel (THERMODYNAMICS) S.D.=  2.56514188295227E-05
DEBUG_STATS_RL:         Theta (THERMODYNAMICS)  min= -1.95891909892377E+00
DEBUG_STATS_RL:         Theta (THERMODYNAMICS)  max=  1.32575107273067E+01
DEBUG_STATS_RL:         Theta (THERMODYNAMICS) mean=  2.41560973729717E+00
DEBUG_STATS_RL:         Theta (THERMODYNAMICS) S.D.=  2.57506629522921E+00
DEBUG_STATS_RL:          Salt (THERMODYNAMICS)  min=  2.76241835718781E+01
DEBUG_STATS_RL:          Salt (THERMODYNAMICS)  max=  3.54512322319690E+01
DEBUG_STATS_RL:          Salt (THERMODYNAMICS) mean=  3.39367610972819E+01
DEBUG_STATS_RL:          Salt (THERMODYNAMICS) S.D.=  1.15400523729941E+00
DEBUG_STATS_RL:         GtNm1 (THERMODYNAMICS)  min=  0.00000000000000E+00
DEBUG_STATS_RL:         GtNm1 (THERMODYNAMICS)  max=  0.00000000000000E+00
DEBUG_STATS_RL:         GtNm1 (THERMODYNAMICS) mean=  0.00000000000000E+00
DEBUG_STATS_RL:         GtNm1 (THERMODYNAMICS) S.D.=  0.00000000000000E+00
DEBUG_STATS_RL:         GsNm1 (THERMODYNAMICS)  min=  0.00000000000000E+00
DEBUG_STATS_RL:         GsNm1 (THERMODYNAMICS)  max=  0.00000000000000E+00
DEBUG_STATS_RL:         GsNm1 (THERMODYNAMICS) mean=  0.00000000000000E+00
DEBUG_STATS_RL:         GsNm1 (THERMODYNAMICS) S.D.=  0.00000000000000E+00
(PID.TID 0000.0001)  MDS_WRITE_FIELD: it,rec,kS,kL,kH=       1     6   1   1   1 file=m_sst_step.0000000001
(PID.TID 0000.0001)  MDS_READ_FIELD: opening global file: xx_atemp.effective.0000000001.data
(PID.TID 0000.0001) EXF_SET_FLD: processing field "climsss",  file: SSS_monthly.labsea1979
(PID.TID 0000.0001) EXF_SET_FLD:   myIter, count0, count1:         5      1      2
(PID.TID 0000.0001) EXF_SET_FLD:   first, changed, fac:   F   F    0.49316939890710387
(PID.TID 0000.0001) EXF_SET_FLD: processing field "uwind",  file: u10m.labsea1979
(PID.TID 0000.0001) EXF_SET_FLD:   myIter, count0, count1:         5      1      2
(PID.TID 0000.0001) EXF_SET_FLD:   first, changed, fac:   F   F    0.49316939890710387
(PID.TID 0000.0001) EXF_SET_FLD: processing field "vwind",  file: v10m.labsea1979
(PID.TID 0000.0001) EXF_SET_FLD:   myIter, count0, count1:         5      1      2
(PID.TID 0000.0001) EXF_SET_FLD:   first, changed, fac:   F   F    0.49316939890710387
(PID.TID 0000.0001) EXF_SET_FLD: processing field "atemp",  file: tair.labsea1979
(PID.TID 0000.0001) EXF_SET_FLD:   myIter, count0, count1:         5      1      2
(PID.TID 0000.0001) EXF_SET_FLD:   first, changed, fac:   F   F    0.49316939890710387
(PID.TID 0000.0001) EXF_SET_FLD: processing field "aqh",  file: qa.labsea1979
(PID.TID 0000.0001) EXF_SET_FLD:   myIter, count0, count1:         5      1      2
(PID.TID 0000.0001) EXF_SET_FLD:   first, changed, fac:   F   F    0.49316939890710387
(PID.TID 0000.0001) EXF_SET_FLD: processing field "precip",  file: prate.labsea1979
(PID.TID 0000.0001) EXF_SET_FLD:   myIter, count0, count1:         5      1      2
(PID.TID 0000.0001) EXF_SET_FLD:   first, changed, fac:   F   F    0.49316939890710387
(PID.TID 0000.0001) EXF_SET_FLD: processing field "swdown",  file: fsh.labsea1979
(PID.TID 0000.0001) EXF_SET_FLD:   myIter, count0, count1:         5      1      2
(PID.TID 0000.0001) EXF_SET_FLD:   first, changed, fac:   F   F    0.49316939890710387
(PID.TID 0000.0001) EXF_SET_FLD: processing field "lwdown",  file: flo.labsea1979
(PID.TID 0000.0001) EXF_SET_FLD:   myIter, count0, count1:         5      1      2
(PID.TID 0000.0001) EXF_SET_FLD:   first, changed, fac:   F   F    0.49316939890710387
DEBUG_STATS_RL: Uice pre  iter (SEAICE_LSR  1)  min= -9.02121933429474E-03
DEBUG_STATS_RL: Uice pre  iter (SEAICE_LSR  1)  max=  2.19445684647109E-01
DEBUG_STATS_RL: Uice pre  iter (SEAICE_LSR  1) mean=  6.96639305502845E-02
DEBUG_STATS_RL: Uice pre  iter (SEAICE_LSR  1) S.D.=  7.25590715280496E-02
DEBUG_STATS_RL: Vice pre  iter (SEAICE_LSR  1)  min= -1.73112057819572E-01
DEBUG_STATS_RL: Vice pre  iter (SEAICE_LSR  1)  max=  1.05174802576009E-01
DEBUG_STATS_RL: Vice pre  iter (SEAICE_LSR  1) mean= -3.44957645455292E-02
DEBUG_STATS_RL: Vice pre  iter (SEAICE_LSR  1) S.D.=  5.17027322843646E-02
DEBUG_STATS_RL: Uice pre  iter (SEAICE_LSR  2)  min= -9.93295031153614E-03
DEBUG_STATS_RL: Uice pre  iter (SEAICE_LSR  2)  max=  2.37649472779152E-01
DEBUG_STATS_RL: Uice pre  iter (SEAICE_LSR  2) mean=  7.08960993522920E-02
DEBUG_STATS_RL: Uice pre  iter (SEAICE_LSR  2) S.D.=  7.51814019584081E-02
DEBUG_STATS_RL: Vice pre  iter (SEAICE_LSR  2)  min= -1.73458139241631E-01
DEBUG_STATS_RL: Vice pre  iter (SEAICE_LSR  2)  max=  1.02503634704983E-01
DEBUG_STATS_RL: Vice pre  iter (SEAICE_LSR  2) mean= -3.89801386769038E-02
DEBUG_STATS_RL: Vice pre  iter (SEAICE_LSR  2) S.D.=  5.44920749396732E-02
DEBUG_STATS_RL:                EtaN (DYNAMICS)  min= -1.29709672821319E-01
DEBUG_STATS_RL:                EtaN (DYNAMICS)  max=  3.25626876398339E-01
DEBUG_STATS_RL:                EtaN (DYNAMICS) mean= -3.00841690121389E-03
DEBUG_STATS_RL:                EtaN (DYNAMICS) S.D.=  7.54180814594223E-02
DEBUG_STATS_RL:                Uvel (DYNAMICS)  min= -3.64296443204000E-02
DEBUG_STATS_RL:                Uvel (DYNAMICS)  max=  8.91662112566488E-02
DEBUG_STATS_RL:                Uvel (DYNAMICS) mean=  5.18186102504854E-03
DEBUG_STATS_RL:                Uvel (DYNAMICS) S.D.=  1.36791834404076E-02
DEBUG_STATS_RL:                Vvel (DYNAMICS)  min= -8.48427067731537E-02
DEBUG_STATS_RL:                Vvel (DYNAMICS)  max=  7.15709637633454E-02
DEBUG_STATS_RL:                Vvel (DYNAMICS) mean= -6.25663991255486E-04
DEBUG_STATS_RL:                Vvel (DYNAMICS) S.D.=  1.65568599029665E-02
DEBUG_STATS_RL:                Wvel (DYNAMICS)  min= -2.02998023749470E-04
DEBUG_STATS_RL:                Wvel (DYNAMICS)  max=  3.07634744219602E-04
DEBUG_STATS_RL:                Wvel (DYNAMICS) mean= -2.14485636604466E-07
DEBUG_STATS_RL:                Wvel (DYNAMICS) S.D.=  2.56514188295227E-05
DEBUG_STATS_RL:               Theta (DYNAMICS)  min= -1.95891909892377E+00
DEBUG_STATS_RL:               Theta (DYNAMICS)  max=  1.32575107273067E+01
DEBUG_STATS_RL:               Theta (DYNAMICS) mean=  2.41560973729717E+00
DEBUG_STATS_RL:               Theta (DYNAMICS) S.D.=  2.57506629522921E+00
DEBUG_STATS_RL:                Salt (DYNAMICS)  min=  2.76241835718781E+01
DEBUG_STATS_RL:                Salt (DYNAMICS)  max=  3.54512322319690E+01
DEBUG_STATS_RL:                Salt (DYNAMICS) mean=  3.39367610972819E+01
DEBUG_STATS_RL:                Salt (DYNAMICS) S.D.=  1.15400523729941E+00
DEBUG_STATS_RL:                  Gu (DYNAMICS)  min= -3.40661284885764E-02
DEBUG_STATS_RL:                  Gu (DYNAMICS)  max=  1.09592409505602E-01
DEBUG_STATS_RL:                  Gu (DYNAMICS) mean=  3.43340148230495E-03
DEBUG_STATS_RL:                  Gu (DYNAMICS) S.D.=  1.52106643071093E-02
DEBUG_STATS_RL:                  Gv (DYNAMICS)  min= -1.19743996000496E-01
DEBUG_STATS_RL:                  Gv (DYNAMICS)  max=  5.31755908727338E-02
DEBUG_STATS_RL:                  Gv (DYNAMICS) mean= -6.43607759845634E-03
DEBUG_STATS_RL:                  Gv (DYNAMICS) S.D.=  1.74595586593434E-02
DEBUG_STATS_RL:               GuNm1 (DYNAMICS)  min= -2.94347299884278E-07
DEBUG_STATS_RL:               GuNm1 (DYNAMICS)  max=  1.78770581560385E-07
DEBUG_STATS_RL:               GuNm1 (DYNAMICS) mean= -3.06311171944810E-09
DEBUG_STATS_RL:               GuNm1 (DYNAMICS) S.D.=  4.19614199162951E-08
DEBUG_STATS_RL:               GvNm1 (DYNAMICS)  min= -1.82273635415876E-07
DEBUG_STATS_RL:               GvNm1 (DYNAMICS)  max=  1.24273330976923E-07
DEBUG_STATS_RL:               GvNm1 (DYNAMICS) mean= -1.05360009952355E-09
DEBUG_STATS_RL:               GvNm1 (DYNAMICS) S.D.=  3.58773704869552E-08
DEBUG_STATS_RL:               GtNm1 (DYNAMICS)  min=  0.00000000000000E+00
DEBUG_STATS_RL:               GtNm1 (DYNAMICS)  max=  0.00000000000000E+00
DEBUG_STATS_RL:               GtNm1 (DYNAMICS) mean=  0.00000000000000E+00
DEBUG_STATS_RL:               GtNm1 (DYNAMICS) S.D.=  0.00000000000000E+00
DEBUG_STATS_RL:               GsNm1 (DYNAMICS)  min=  0.00000000000000E+00
DEBUG_STATS_RL:               GsNm1 (DYNAMICS)  max=  0.00000000000000E+00
DEBUG_STATS_RL:               GsNm1 (DYNAMICS) mean=  0.00000000000000E+00
DEBUG_STATS_RL:               GsNm1 (DYNAMICS) S.D.=  0.00000000000000E+00
DEBUG_STATS_RL:    cg2d_b (SOLVE_FOR_PRESSURE)  min= -7.45833771571440E+03
DEBUG_STATS_RL:    cg2d_b (SOLVE_FOR_PRESSURE)  max=  2.17494903027811E+03
DEBUG_STATS_RL:    cg2d_b (SOLVE_FOR_PRESSURE) mean=  5.60665588030436E-13
DEBUG_STATS_RL:    cg2d_b (SOLVE_FOR_PRESSURE) S.D.=  9.06377010650434E+02
 cg2d: Sum(rhs),rhsMax =   1.11369247157711E-14  1.20041496847831E+00
DEBUG_STATS_RL:    cg2d_x (SOLVE_FOR_PRESSURE)  min= -1.23196163368223E+00
DEBUG_STATS_RL:    cg2d_x (SOLVE_FOR_PRESSURE)  max=  3.23727429689696E+00
DEBUG_STATS_RL:    cg2d_x (SOLVE_FOR_PRESSURE) mean= -3.45194761147103E-02
DEBUG_STATS_RL:    cg2d_x (SOLVE_FOR_PRESSURE) S.D.=  7.10912240392584E-01
DEBUG_STATS_RL:          Uvel (THERMODYNAMICS)  min= -3.59096386964075E-02
DEBUG_STATS_RL:          Uvel (THERMODYNAMICS)  max=  1.01288605318195E-01
DEBUG_STATS_RL:          Uvel (THERMODYNAMICS) mean=  5.06442107690984E-03
DEBUG_STATS_RL:          Uvel (THERMODYNAMICS) S.D.=  1.40087544095660E-02
DEBUG_STATS_RL:          Vvel (THERMODYNAMICS)  min= -1.10756263988807E-01
DEBUG_STATS_RL:          Vvel (THERMODYNAMICS)  max=  7.07208418107750E-02
DEBUG_STATS_RL:          Vvel (THERMODYNAMICS) mean= -2.17557054829110E-03
DEBUG_STATS_RL:          Vvel (THERMODYNAMICS) S.D.=  1.80912833066734E-02
DEBUG_STATS_RL:          Wvel (THERMODYNAMICS)  min= -2.43811460414305E-04
DEBUG_STATS_RL:          Wvel (THERMODYNAMICS)  max=  3.28816353261775E-04
DEBUG_STATS_RL:          Wvel (THERMODYNAMICS) mean= -1.37923543342688E-07
DEBUG_STATS_RL:          Wvel (THERMODYNAMICS) S.D.=  2.75149300864465E-05
DEBUG_STATS_RL:         Theta (THERMODYNAMICS)  min= -1.96015217723738E+00
DEBUG_STATS_RL:         Theta (THERMODYNAMICS)  max=  1.32512671183369E+01
DEBUG_STATS_RL:         Theta (THERMODYNAMICS) mean=  2.41531606071968E+00
DEBUG_STATS_RL:         Theta (THERMODYNAMICS) S.D.=  2.57483151675911E+00
DEBUG_STATS_RL:          Salt (THERMODYNAMICS)  min=  2.76290307531745E+01
DEBUG_STATS_RL:          Salt (THERMODYNAMICS)  max=  3.54512307060718E+01
DEBUG_STATS_RL:          Salt (THERMODYNAMICS) mean=  3.39367446276230E+01
DEBUG_STATS_RL:          Salt (THERMODYNAMICS) S.D.=  1.15382313156971E+00
DEBUG_STATS_RL:         GtNm1 (THERMODYNAMICS)  min=  0.00000000000000E+00
DEBUG_STATS_RL:         GtNm1 (THERMODYNAMICS)  max=  0.00000000000000E+00
DEBUG_STATS_RL:         GtNm1 (THERMODYNAMICS) mean=  0.00000000000000E+00
DEBUG_STATS_RL:         GtNm1 (THERMODYNAMICS) S.D.=  0.00000000000000E+00
DEBUG_STATS_RL:         GsNm1 (THERMODYNAMICS)  min=  0.00000000000000E+00
DEBUG_STATS_RL:         GsNm1 (THERMODYNAMICS)  max=  0.00000000000000E+00
DEBUG_STATS_RL:         GsNm1 (THERMODYNAMICS) mean=  0.00000000000000E+00
DEBUG_STATS_RL:         GsNm1 (THERMODYNAMICS) S.D.=  0.00000000000000E+00
(PID.TID 0000.0001)  MDS_WRITE_FIELD: it,rec,kS,kL,kH=       1     7   1   1   1 file=m_sst_step.0000000001
(PID.TID 0000.0001)  MDS_READ_FIELD: opening global file: xx_atemp.effective.0000000001.data
(PID.TID 0000.0001) EXF_SET_FLD: processing field "climsss",  file: SSS_monthly.labsea1979
(PID.TID 0000.0001) EXF_SET_FLD:   myIter, count0, count1:         6      1      2
(PID.TID 0000.0001) EXF_SET_FLD:   first, changed, fac:   F   F    0.49180327868852458
(PID.TID 0000.0001) EXF_SET_FLD: processing field "uwind",  file: u10m.labsea1979
(PID.TID 0000.0001) EXF_SET_FLD:   myIter, count0, count1:         6      1      2
(PID.TID 0000.0001) EXF_SET_FLD:   first, changed, fac:   F   F    0.49180327868852458
(PID.TID 0000.0001) EXF_SET_FLD: processing field "vwind",  file: v10m.labsea1979
(PID.TID 0000.0001) EXF_SET_FLD:   myIter, count0, count1:         6      1      2
(PID.TID 0000.0001) EXF_SET_FLD:   first, changed, fac:   F   F    0.49180327868852458
(PID.TID 0000.0001) EXF_SET_FLD: processing field "atemp",  file: tair.labsea1979
(PID.TID 0000.0001) EXF_SET_FLD:   myIter, count0, count1:         6      1      2
(PID.TID 0000.0001) EXF_SET_FLD:   first, changed, fac:   F   F    0.49180327868852458
(PID.TID 0000.0001) EXF_SET_FLD: processing field "aqh",  file: qa.labsea1979
(PID.TID 0000.0001) EXF_SET_FLD:   myIter, count0, count1:         6      1      2
(PID.TID 0000.0001) EXF_SET_FLD:   first, changed, fac:   F   F    0.49180327868852458
(PID.TID 0000.0001) EXF_SET_FLD: processing field "precip",  file: prate.labsea1979
(PID.TID 0000.0001) EXF_SET_FLD:   myIter, count0, count1:         6      1      2
(PID.TID 0000.0001) EXF_SET_FLD:   first, changed, fac:   F   F    0.49180327868852458
(PID.TID 0000.0001) EXF_SET_FLD: processing field "swdown",  file: fsh.labsea1979
(PID.TID 0000.0001) EXF_SET_FLD:   myIter, count0, count1:         6      1      2
(PID.TID 0000.0001) EXF_SET_FLD:   first, changed, fac:   F   F    0.49180327868852458
(PID.TID 0000.0001) EXF_SET_FLD: processing field "lwdown",  file: flo.labsea1979
(PID.TID 0000.0001) EXF_SET_FLD:   myIter, count0, count1:         6      1      2
(PID.TID 0000.0001) EXF_SET_FLD:   first, changed, fac:   F   F    0.49180327868852458
DEBUG_STATS_RL: Uice pre  iter (SEAICE_LSR  1)  min= -1.19106759196773E-02
DEBUG_STATS_RL: Uice pre  iter (SEAICE_LSR  1)  max=  2.40859973799500E-01
DEBUG_STATS_RL: Uice pre  iter (SEAICE_LSR  1) mean=  7.02597534860775E-02
DEBUG_STATS_RL: Uice pre  iter (SEAICE_LSR  1) S.D.=  7.57773428259927E-02
DEBUG_STATS_RL: Vice pre  iter (SEAICE_LSR  1)  min= -1.74132342678211E-01
DEBUG_STATS_RL: Vice pre  iter (SEAICE_LSR  1)  max=  9.66358613081406E-02
DEBUG_STATS_RL: Vice pre  iter (SEAICE_LSR  1) mean= -4.28491368243344E-02
DEBUG_STATS_RL: Vice pre  iter (SEAICE_LSR  1) S.D.=  5.63763392293487E-02
DEBUG_STATS_RL: Uice pre  iter (SEAICE_LSR  2)  min= -1.30564509125935E-02
DEBUG_STATS_RL: Uice pre  iter (SEAICE_LSR  2)  max=  2.47901039964918E-01
DEBUG_STATS_RL: Uice pre  iter (SEAICE_LSR  2) mean=  6.80717062409807E-02
DEBUG_STATS_RL: Uice pre  iter (SEAICE_LSR  2) S.D.=  7.48548542542770E-02
DEBUG_STATS_RL: Vice pre  iter (SEAICE_LSR  2)  min= -1.68314830999124E-01
DEBUG_STATS_RL: Vice pre  iter (SEAICE_LSR  2)  max=  8.87290074915906E-02
DEBUG_STATS_RL: Vice pre  iter (SEAICE_LSR  2) mean= -4.61137817409938E-02
DEBUG_STATS_RL: Vice pre  iter (SEAICE_LSR  2) S.D.=  5.74118961798142E-02
DEBUG_STATS_RL:                EtaN (DYNAMICS)  min= -1.25510578434556E-01
DEBUG_STATS_RL:                EtaN (DYNAMICS)  max=  3.29809109672049E-01
DEBUG_STATS_RL:                EtaN (DYNAMICS) mean= -3.51679735469153E-03
DEBUG_STATS_RL:                EtaN (DYNAMICS) S.D.=  7.24267737471560E-02
DEBUG_STATS_RL:                Uvel (DYNAMICS)  min= -3.59096386964075E-02
DEBUG_STATS_RL:                Uvel (DYNAMICS)  max=  1.01288605318195E-01
DEBUG_STATS_RL:                Uvel (DYNAMICS) mean=  5.06442107690984E-03
DEBUG_STATS_RL:                Uvel (DYNAMICS) S.D.=  1.40087544095660E-02
DEBUG_STATS_RL:                Vvel (DYNAMICS)  min= -1.10756263988807E-01
DEBUG_STATS_RL:                Vvel (DYNAMICS)  max=  7.07208418107750E-02
DEBUG_STATS_RL:                Vvel (DYNAMICS) mean= -2.17557054829110E-03
DEBUG_STATS_RL:                Vvel (DYNAMICS) S.D.=  1.80912833066734E-02
DEBUG_STATS_RL:                Wvel (DYNAMICS)  min= -2.43811460414305E-04
DEBUG_STATS_RL:                Wvel (DYNAMICS)  max=  3.28816353261775E-04
DEBUG_STATS_RL:                Wvel (DYNAMICS) mean= -1.37923543342688E-07
DEBUG_STATS_RL:                Wvel (DYNAMICS) S.D.=  2.75149300864465E-05
DEBUG_STATS_RL:               Theta (DYNAMICS)  min= -1.96015217723738E+00
DEBUG_STATS_RL:               Theta (DYNAMICS)  max=  1.32512671183369E+01
DEBUG_STATS_RL:               Theta (DYNAMICS) mean=  2.41531606071968E+00
DEBUG_STATS_RL:               Theta (DYNAMICS) S.D.=  2.57483151675911E+00
DEBUG_STATS_RL:                Salt (DYNAMICS)  min=  2.76290307531745E+01
DEBUG_STATS_RL:                Salt (DYNAMICS)  max=  3.54512307060718E+01
DEBUG_STATS_RL:                Salt (DYNAMICS) mean=  3.39367446276230E+01
DEBUG_STATS_RL:                Salt (DYNAMICS) S.D.=  1.15382313156971E+00
DEBUG_STATS_RL:                  Gu (DYNAMICS)  min= -4.45840116900042E-02
DEBUG_STATS_RL:                  Gu (DYNAMICS)  max=  1.13252404039500E-01
DEBUG_STATS_RL:                  Gu (DYNAMICS) mean=  3.02808241160018E-03
DEBUG_STATS_RL:                  Gu (DYNAMICS) S.D.=  1.59063121239197E-02
DEBUG_STATS_RL:                  Gv (DYNAMICS)  min= -1.34630447324880E-01
DEBUG_STATS_RL:                  Gv (DYNAMICS)  max=  4.81174890382836E-02
DEBUG_STATS_RL:                  Gv (DYNAMICS) mean= -7.41639241988112E-03
DEBUG_STATS_RL:                  Gv (DYNAMICS) S.D.=  1.85638365104913E-02
DEBUG_STATS_RL:               GuNm1 (DYNAMICS)  min= -3.33271036892891E-07
DEBUG_STATS_RL:               GuNm1 (DYNAMICS)  max=  1.87479663955275E-07
DEBUG_STATS_RL:               GuNm1 (DYNAMICS) mean= -3.31200046769886E-09
DEBUG_STATS_RL:               GuNm1 (DYNAMICS) S.D.=  4.08419141881692E-08
DEBUG_STATS_RL:               GvNm1 (DYNAMICS)  min= -2.04912919624488E-07
DEBUG_STATS_RL:               GvNm1 (DYNAMICS)  max=  1.56710147054403E-07
DEBUG_STATS_RL:               GvNm1 (DYNAMICS) mean= -8.96938696733049E-10
DEBUG_STATS_RL:               GvNm1 (DYNAMICS) S.D.=  3.95873164872763E-08
DEBUG_STATS_RL:               GtNm1 (DYNAMICS)  min=  0.00000000000000E+00
DEBUG_STATS_RL:               GtNm1 (DYNAMICS)  max=  0.00000000000000E+00
DEBUG_STATS_RL:               GtNm1 (DYNAMICS) mean=  0.00000000000000E+00
DEBUG_STATS_RL:               GtNm1 (DYNAMICS) S.D.=  0.00000000000000E+00
DEBUG_STATS_RL:               GsNm1 (DYNAMICS)  min=  0.00000000000000E+00
DEBUG_STATS_RL:               GsNm1 (DYNAMICS)  max=  0.00000000000000E+00
DEBUG_STATS_RL:               GsNm1 (DYNAMICS) mean=  0.00000000000000E+00
DEBUG_STATS_RL:               GsNm1 (DYNAMICS) S.D.=  0.00000000000000E+00
DEBUG_STATS_RL:    cg2d_b (SOLVE_FOR_PRESSURE)  min= -7.43169656860979E+03
DEBUG_STATS_RL:    cg2d_b (SOLVE_FOR_PRESSURE)  max=  2.17598296942691E+03
DEBUG_STATS_RL:    cg2d_b (SOLVE_FOR_PRESSURE) mean=  7.74396842947075E-13
DEBUG_STATS_RL:    cg2d_b (SOLVE_FOR_PRESSURE) S.D.=  9.02750100849826E+02
 cg2d: Sum(rhs),rhsMax =   1.50573997714787E-14  1.19612709187889E+00
DEBUG_STATS_RL:    cg2d_x (SOLVE_FOR_PRESSURE)  min= -1.18794061890986E+00
DEBUG_STATS_RL:    cg2d_x (SOLVE_FOR_PRESSURE)  max=  3.24511049575557E+00
DEBUG_STATS_RL:    cg2d_x (SOLVE_FOR_PRESSURE) mean= -3.88654400024849E-02
DEBUG_STATS_RL:    cg2d_x (SOLVE_FOR_PRESSURE) S.D.=  6.81167535252230E-01
DEBUG_STATS_RL:          Uvel (THERMODYNAMICS)  min= -3.57601727944951E-02
DEBUG_STATS_RL:          Uvel (THERMODYNAMICS)  max=  1.04775938290593E-01
DEBUG_STATS_RL:          Uvel (THERMODYNAMICS) mean=  4.39725630124665E-03
DEBUG_STATS_RL:          Uvel (THERMODYNAMICS) S.D.=  1.39028540310441E-02
DEBUG_STATS_RL:          Vvel (THERMODYNAMICS)  min= -1.27584762387760E-01
DEBUG_STATS_RL:          Vvel (THERMODYNAMICS)  max=  6.50083276838881E-02
DEBUG_STATS_RL:          Vvel (THERMODYNAMICS) mean= -3.36887217582690E-03
DEBUG_STATS_RL:          Vvel (THERMODYNAMICS) S.D.=  1.85890275650461E-02
DEBUG_STATS_RL:          Wvel (THERMODYNAMICS)  min= -2.67954696014336E-04
DEBUG_STATS_RL:          Wvel (THERMODYNAMICS)  max=  3.29804232734353E-04
DEBUG_STATS_RL:          Wvel (THERMODYNAMICS) mean= -4.85616750769436E-08
DEBUG_STATS_RL:          Wvel (THERMODYNAMICS) S.D.=  2.84164537902825E-05
DEBUG_STATS_RL:         Theta (THERMODYNAMICS)  min= -1.95963016104375E+00
DEBUG_STATS_RL:         Theta (THERMODYNAMICS)  max=  1.32396343409662E+01
DEBUG_STATS_RL:         Theta (THERMODYNAMICS) mean=  2.41506584132490E+00
DEBUG_STATS_RL:         Theta (THERMODYNAMICS) S.D.=  2.57443936967394E+00
DEBUG_STATS_RL:          Salt (THERMODYNAMICS)  min=  2.76338867569799E+01
DEBUG_STATS_RL:          Salt (THERMODYNAMICS)  max=  3.54511617149686E+01
DEBUG_STATS_RL:          Salt (THERMODYNAMICS) mean=  3.39367496241618E+01
DEBUG_STATS_RL:          Salt (THERMODYNAMICS) S.D.=  1.15359229307803E+00
DEBUG_STATS_RL:         GtNm1 (THERMODYNAMICS)  min=  0.00000000000000E+00
DEBUG_STATS_RL:         GtNm1 (THERMODYNAMICS)  max=  0.00000000000000E+00
DEBUG_STATS_RL:         GtNm1 (THERMODYNAMICS) mean=  0.00000000000000E+00
DEBUG_STATS_RL:         GtNm1 (THERMODYNAMICS) S.D.=  0.00000000000000E+00
DEBUG_STATS_RL:         GsNm1 (THERMODYNAMICS)  min=  0.00000000000000E+00
DEBUG_STATS_RL:         GsNm1 (THERMODYNAMICS)  max=  0.00000000000000E+00
DEBUG_STATS_RL:         GsNm1 (THERMODYNAMICS) mean=  0.00000000000000E+00
DEBUG_STATS_RL:         GsNm1 (THERMODYNAMICS) S.D.=  0.00000000000000E+00
(PID.TID 0000.0001)  MDS_WRITE_FIELD: it,rec,kS,kL,kH=       1     8   1   1   1 file=m_sst_step.0000000001
(PID.TID 0000.0001)  MDS_READ_FIELD: opening global file: xx_atemp.effective.0000000001.data
(PID.TID 0000.0001) EXF_SET_FLD: processing field "climsss",  file: SSS_monthly.labsea1979
(PID.TID 0000.0001) EXF_SET_FLD:   myIter, count0, count1:         7      1      2
(PID.TID 0000.0001) EXF_SET_FLD:   first, changed, fac:   F   F    0.49043715846994540
(PID.TID 0000.0001) EXF_SET_FLD: processing field "uwind",  file: u10m.labsea1979
(PID.TID 0000.0001) EXF_SET_FLD:   myIter, count0, count1:         7      1      2
(PID.TID 0000.0001) EXF_SET_FLD:   first, changed, fac:   F   F    0.49043715846994540
(PID.TID 0000.0001) EXF_SET_FLD: processing field "vwind",  file: v10m.labsea1979
(PID.TID 0000.0001) EXF_SET_FLD:   myIter, count0, count1:         7      1      2
(PID.TID 0000.0001) EXF_SET_FLD:   first, changed, fac:   F   F    0.49043715846994540
(PID.TID 0000.0001) EXF_SET_FLD: processing field "atemp",  file: tair.labsea1979
(PID.TID 0000.0001) EXF_SET_FLD:   myIter, count0, count1:         7      1      2
(PID.TID 0000.0001) EXF_SET_FLD:   first, changed, fac:   F   F    0.49043715846994540
(PID.TID 0000.0001) EXF_SET_FLD: processing field "aqh",  file: qa.labsea1979
(PID.TID 0000.0001) EXF_SET_FLD:   myIter, count0, count1:         7      1      2
(PID.TID 0000.0001) EXF_SET_FLD:   first, changed, fac:   F   F    0.49043715846994540
(PID.TID 0000.0001) EXF_SET_FLD: processing field "precip",  file: prate.labsea1979
(PID.TID 0000.0001) EXF_SET_FLD:   myIter, count0, count1:         7      1      2
(PID.TID 0000.0001) EXF_SET_FLD:   first, changed, fac:   F   F    0.49043715846994540
(PID.TID 0000.0001) EXF_SET_FLD: processing field "swdown",  file: fsh.labsea1979
(PID.TID 0000.0001) EXF_SET_FLD:   myIter, count0, count1:         7      1      2
(PID.TID 0000.0001) EXF_SET_FLD:   first, changed, fac:   F   F    0.49043715846994540
(PID.TID 0000.0001) EXF_SET_FLD: processing field "lwdown",  file: flo.labsea1979
(PID.TID 0000.0001) EXF_SET_FLD:   myIter, count0, count1:         7      1      2
(PID.TID 0000.0001) EXF_SET_FLD:   first, changed, fac:   F   F    0.49043715846994540
DEBUG_STATS_RL: Uice pre  iter (SEAICE_LSR  1)  min= -1.54549194526062E-02
DEBUG_STATS_RL: Uice pre  iter (SEAICE_LSR  1)  max=  2.53524286292195E-01
DEBUG_STATS_RL: Uice pre  iter (SEAICE_LSR  1) mean=  6.68799365319557E-02
DEBUG_STATS_RL: Uice pre  iter (SEAICE_LSR  1) S.D.=  7.54478852962775E-02
DEBUG_STATS_RL: Vice pre  iter (SEAICE_LSR  1)  min= -1.68373183021965E-01
DEBUG_STATS_RL: Vice pre  iter (SEAICE_LSR  1)  max=  8.10859368452308E-02
DEBUG_STATS_RL: Vice pre  iter (SEAICE_LSR  1) mean= -4.94905385201718E-02
DEBUG_STATS_RL: Vice pre  iter (SEAICE_LSR  1) S.D.=  5.89447951205371E-02
DEBUG_STATS_RL: Uice pre  iter (SEAICE_LSR  2)  min= -1.68104910559966E-02
DEBUG_STATS_RL: Uice pre  iter (SEAICE_LSR  2)  max=  2.51381266335640E-01
DEBUG_STATS_RL: Uice pre  iter (SEAICE_LSR  2) mean=  6.26056742416203E-02
DEBUG_STATS_RL: Uice pre  iter (SEAICE_LSR  2) S.D.=  7.23215228186925E-02
DEBUG_STATS_RL: Vice pre  iter (SEAICE_LSR  2)  min= -1.70146515867829E-01
DEBUG_STATS_RL: Vice pre  iter (SEAICE_LSR  2)  max=  7.01571636850259E-02
DEBUG_STATS_RL: Vice pre  iter (SEAICE_LSR  2) mean= -5.12009841744291E-02
DEBUG_STATS_RL: Vice pre  iter (SEAICE_LSR  2) S.D.=  5.84735965013758E-02
DEBUG_STATS_RL:                EtaN (DYNAMICS)  min= -1.21025777222978E-01
DEBUG_STATS_RL:                EtaN (DYNAMICS)  max=  3.30607450971471E-01
DEBUG_STATS_RL:                EtaN (DYNAMICS) mean= -3.95955825446074E-03
DEBUG_STATS_RL:                EtaN (DYNAMICS) S.D.=  6.93964235759637E-02
DEBUG_STATS_RL:                Uvel (DYNAMICS)  min= -3.57601727944951E-02
DEBUG_STATS_RL:                Uvel (DYNAMICS)  max=  1.04775938290593E-01
DEBUG_STATS_RL:                Uvel (DYNAMICS) mean=  4.39725630124665E-03
DEBUG_STATS_RL:                Uvel (DYNAMICS) S.D.=  1.39028540310441E-02
DEBUG_STATS_RL:                Vvel (DYNAMICS)  min= -1.27584762387760E-01
DEBUG_STATS_RL:                Vvel (DYNAMICS)  max=  6.50083276838881E-02
DEBUG_STATS_RL:                Vvel (DYNAMICS) mean= -3.36887217582690E-03
DEBUG_STATS_RL:                Vvel (DYNAMICS) S.D.=  1.85890275650461E-02
DEBUG_STATS_RL:                Wvel (DYNAMICS)  min= -2.67954696014336E-04
DEBUG_STATS_RL:                Wvel (DYNAMICS)  max=  3.29804232734353E-04
DEBUG_STATS_RL:                Wvel (DYNAMICS) mean= -4.85616750769436E-08
DEBUG_STATS_RL:                Wvel (DYNAMICS) S.D.=  2.84164537902825E-05
DEBUG_STATS_RL:               Theta (DYNAMICS)  min= -1.95963016104375E+00
DEBUG_STATS_RL:               Theta (DYNAMICS)  max=  1.32396343409662E+01
DEBUG_STATS_RL:               Theta (DYNAMICS) mean=  2.41506584132490E+00
DEBUG_STATS_RL:               Theta (DYNAMICS) S.D.=  2.57443936967394E+00
DEBUG_STATS_RL:                Salt (DYNAMICS)  min=  2.76338867569799E+01
DEBUG_STATS_RL:                Salt (DYNAMICS)  max=  3.54511617149686E+01
DEBUG_STATS_RL:                Salt (DYNAMICS) mean=  3.39367496241618E+01
DEBUG_STATS_RL:                Salt (DYNAMICS) S.D.=  1.15359229307803E+00
DEBUG_STATS_RL:                  Gu (DYNAMICS)  min= -5.18639383674433E-02
DEBUG_STATS_RL:                  Gu (DYNAMICS)  max=  1.08500044377569E-01
DEBUG_STATS_RL:                  Gu (DYNAMICS) mean=  2.22152146944146E-03
DEBUG_STATS_RL:                  Gu (DYNAMICS) S.D.=  1.62488741545670E-02
DEBUG_STATS_RL:                  Gv (DYNAMICS)  min= -1.40216393355420E-01
DEBUG_STATS_RL:                  Gv (DYNAMICS)  max=  4.07135165171609E-02
DEBUG_STATS_RL:                  Gv (DYNAMICS) mean= -7.84361289826868E-03
DEBUG_STATS_RL:                  Gv (DYNAMICS) S.D.=  1.86090017356382E-02
DEBUG_STATS_RL:               GuNm1 (DYNAMICS)  min= -3.48473911940021E-07
DEBUG_STATS_RL:               GuNm1 (DYNAMICS)  max=  1.90416017948049E-07
DEBUG_STATS_RL:               GuNm1 (DYNAMICS) mean= -3.12306477014265E-09
DEBUG_STATS_RL:               GuNm1 (DYNAMICS) S.D.=  4.09417632400117E-08
DEBUG_STATS_RL:               GvNm1 (DYNAMICS)  min= -2.15359173477264E-07
DEBUG_STATS_RL:               GvNm1 (DYNAMICS)  max=  1.82438063100003E-07
DEBUG_STATS_RL:               GvNm1 (DYNAMICS) mean= -6.53519601923067E-10
DEBUG_STATS_RL:               GvNm1 (DYNAMICS) S.D.=  4.16452354557878E-08
DEBUG_STATS_RL:               GtNm1 (DYNAMICS)  min=  0.00000000000000E+00
DEBUG_STATS_RL:               GtNm1 (DYNAMICS)  max=  0.00000000000000E+00
DEBUG_STATS_RL:               GtNm1 (DYNAMICS) mean=  0.00000000000000E+00
DEBUG_STATS_RL:               GtNm1 (DYNAMICS) S.D.=  0.00000000000000E+00
DEBUG_STATS_RL:               GsNm1 (DYNAMICS)  min=  0.00000000000000E+00
DEBUG_STATS_RL:               GsNm1 (DYNAMICS)  max=  0.00000000000000E+00
DEBUG_STATS_RL:               GsNm1 (DYNAMICS) mean=  0.00000000000000E+00
DEBUG_STATS_RL:               GsNm1 (DYNAMICS) S.D.=  0.00000000000000E+00
DEBUG_STATS_RL:    cg2d_b (SOLVE_FOR_PRESSURE)  min= -7.37985604508112E+03
DEBUG_STATS_RL:    cg2d_b (SOLVE_FOR_PRESSURE)  max=  2.18366607280463E+03
DEBUG_STATS_RL:    cg2d_b (SOLVE_FOR_PRESSURE) mean=  6.17887963016983E-13
DEBUG_STATS_RL:    cg2d_b (SOLVE_FOR_PRESSURE) S.D.=  8.98963545839808E+02
 cg2d: Sum(rhs),rhsMax =   1.32151234399913E-14  1.18778339080372E+00
DEBUG_STATS_RL:    cg2d_x (SOLVE_FOR_PRESSURE)  min= -1.13929441834718E+00
DEBUG_STATS_RL:    cg2d_x (SOLVE_FOR_PRESSURE)  max=  3.20616731162106E+00
DEBUG_STATS_RL:    cg2d_x (SOLVE_FOR_PRESSURE) mean= -4.15672442270705E-02
DEBUG_STATS_RL:    cg2d_x (SOLVE_FOR_PRESSURE) S.D.=  6.51074617232181E-01
DEBUG_STATS_RL:          Uvel (THERMODYNAMICS)  min= -4.34802359636369E-02
DEBUG_STATS_RL:          Uvel (THERMODYNAMICS)  max=  9.99752242998815E-02
DEBUG_STATS_RL:          Uvel (THERMODYNAMICS) mean=  3.48264152589411E-03
DEBUG_STATS_RL:          Uvel (THERMODYNAMICS) S.D.=  1.35343125506332E-02
DEBUG_STATS_RL:          Vvel (THERMODYNAMICS)  min= -1.33439207289231E-01
DEBUG_STATS_RL:          Vvel (THERMODYNAMICS)  max=  5.60260700766977E-02
DEBUG_STATS_RL:          Vvel (THERMODYNAMICS) mean= -4.02696574873536E-03
DEBUG_STATS_RL:          Vvel (THERMODYNAMICS) S.D.=  1.80273334212939E-02
DEBUG_STATS_RL:          Wvel (THERMODYNAMICS)  min= -2.73348162229351E-04
DEBUG_STATS_RL:          Wvel (THERMODYNAMICS)  max=  3.13596923283705E-04
DEBUG_STATS_RL:          Wvel (THERMODYNAMICS) mean=  4.73709411308765E-08
DEBUG_STATS_RL:          Wvel (THERMODYNAMICS) S.D.=  2.82661454219218E-05
DEBUG_STATS_RL:         Theta (THERMODYNAMICS)  min= -1.95943609422387E+00
DEBUG_STATS_RL:         Theta (THERMODYNAMICS)  max=  1.32225113409295E+01
DEBUG_STATS_RL:         Theta (THERMODYNAMICS) mean=  2.41480286619417E+00
DEBUG_STATS_RL:         Theta (THERMODYNAMICS) S.D.=  2.57398860030337E+00
DEBUG_STATS_RL:          Salt (THERMODYNAMICS)  min=  2.76387468555707E+01
DEBUG_STATS_RL:          Salt (THERMODYNAMICS)  max=  3.54510358217953E+01
DEBUG_STATS_RL:          Salt (THERMODYNAMICS) mean=  3.39367601804938E+01
DEBUG_STATS_RL:          Salt (THERMODYNAMICS) S.D.=  1.15334890349894E+00
DEBUG_STATS_RL:         GtNm1 (THERMODYNAMICS)  min=  0.00000000000000E+00
DEBUG_STATS_RL:         GtNm1 (THERMODYNAMICS)  max=  0.00000000000000E+00
DEBUG_STATS_RL:         GtNm1 (THERMODYNAMICS) mean=  0.00000000000000E+00
DEBUG_STATS_RL:         GtNm1 (THERMODYNAMICS) S.D.=  0.00000000000000E+00
DEBUG_STATS_RL:         GsNm1 (THERMODYNAMICS)  min=  0.00000000000000E+00
DEBUG_STATS_RL:         GsNm1 (THERMODYNAMICS)  max=  0.00000000000000E+00
DEBUG_STATS_RL:         GsNm1 (THERMODYNAMICS) mean=  0.00000000000000E+00
DEBUG_STATS_RL:         GsNm1 (THERMODYNAMICS) S.D.=  0.00000000000000E+00
(PID.TID 0000.0001)  MDS_WRITE_FIELD: it,rec,kS,kL,kH=       1     9   1   1   1 file=m_sst_step.0000000001
(PID.TID 0000.0001)  MDS_READ_FIELD: opening global file: xx_atemp.effective.0000000001.data
(PID.TID 0000.0001) EXF_SET_FLD: processing field "climsss",  file: SSS_monthly.labsea1979
(PID.TID 0000.0001) EXF_SET_FLD:   myIter, count0, count1:         8      1      2
(PID.TID 0000.0001) EXF_SET_FLD:   first, changed, fac:   F   F    0.48907103825136611
(PID.TID 0000.0001) EXF_SET_FLD: processing field "uwind",  file: u10m.labsea1979
(PID.TID 0000.0001) EXF_SET_FLD:   myIter, count0, count1:         8      1      2
(PID.TID 0000.0001) EXF_SET_FLD:   first, changed, fac:   F   F    0.48907103825136611
(PID.TID 0000.0001) EXF_SET_FLD: processing field "vwind",  file: v10m.labsea1979
(PID.TID 0000.0001) EXF_SET_FLD:   myIter, count0, count1:         8      1      2
(PID.TID 0000.0001) EXF_SET_FLD:   first, changed, fac:   F   F    0.48907103825136611
(PID.TID 0000.0001) EXF_SET_FLD: processing field "atemp",  file: tair.labsea1979
(PID.TID 0000.0001) EXF_SET_FLD:   myIter, count0, count1:         8      1      2
(PID.TID 0000.0001) EXF_SET_FLD:   first, changed, fac:   F   F    0.48907103825136611
(PID.TID 0000.0001) EXF_SET_FLD: processing field "aqh",  file: qa.labsea1979
(PID.TID 0000.0001) EXF_SET_FLD:   myIter, count0, count1:         8      1      2
(PID.TID 0000.0001) EXF_SET_FLD:   first, changed, fac:   F   F    0.48907103825136611
(PID.TID 0000.0001) EXF_SET_FLD: processing field "precip",  file: prate.labsea1979
(PID.TID 0000.0001) EXF_SET_FLD:   myIter, count0, count1:         8      1      2
(PID.TID 0000.0001) EXF_SET_FLD:   first, changed, fac:   F   F    0.48907103825136611
(PID.TID 0000.0001) EXF_SET_FLD: processing field "swdown",  file: fsh.labsea1979
(PID.TID 0000.0001) EXF_SET_FLD:   myIter, count0, count1:         8      1      2
(PID.TID 0000.0001) EXF_SET_FLD:   first, changed, fac:   F   F    0.48907103825136611
(PID.TID 0000.0001) EXF_SET_FLD: processing field "lwdown",  file: flo.labsea1979
(PID.TID 0000.0001) EXF_SET_FLD:   myIter, count0, count1:         8      1      2
(PID.TID 0000.0001) EXF_SET_FLD:   first, changed, fac:   F   F    0.48907103825136611
DEBUG_STATS_RL: Uice pre  iter (SEAICE_LSR  1)  min= -1.95687208100323E-02
DEBUG_STATS_RL: Uice pre  iter (SEAICE_LSR  1)  max=  2.56695252608154E-01
DEBUG_STATS_RL: Uice pre  iter (SEAICE_LSR  1) mean=  6.10102626007758E-02
DEBUG_STATS_RL: Uice pre  iter (SEAICE_LSR  1) S.D.=  7.26515133443457E-02
DEBUG_STATS_RL: Vice pre  iter (SEAICE_LSR  1)  min= -1.74351841640620E-01
DEBUG_STATS_RL: Vice pre  iter (SEAICE_LSR  1)  max=  6.17815719868611E-02
DEBUG_STATS_RL: Vice pre  iter (SEAICE_LSR  1) mean= -5.34332922103747E-02
DEBUG_STATS_RL: Vice pre  iter (SEAICE_LSR  1) S.D.=  5.91879685812729E-02
DEBUG_STATS_RL: Uice pre  iter (SEAICE_LSR  2)  min= -2.10631196463355E-02
DEBUG_STATS_RL: Uice pre  iter (SEAICE_LSR  2)  max=  2.47741110498679E-01
DEBUG_STATS_RL: Uice pre  iter (SEAICE_LSR  2) mean=  5.58563099524273E-02
DEBUG_STATS_RL: Uice pre  iter (SEAICE_LSR  2) S.D.=  6.83562873807666E-02
DEBUG_STATS_RL: Vice pre  iter (SEAICE_LSR  2)  min= -1.71270231909818E-01
DEBUG_STATS_RL: Vice pre  iter (SEAICE_LSR  2)  max=  5.00408736690814E-02
DEBUG_STATS_RL: Vice pre  iter (SEAICE_LSR  2) mean= -5.35471708937932E-02
DEBUG_STATS_RL: Vice pre  iter (SEAICE_LSR  2) S.D.=  5.75117440526079E-02
DEBUG_STATS_RL:                EtaN (DYNAMICS)  min= -1.16069768363338E-01
DEBUG_STATS_RL:                EtaN (DYNAMICS)  max=  3.26639972250404E-01
DEBUG_STATS_RL:                EtaN (DYNAMICS) mean= -4.23481440024762E-03
DEBUG_STATS_RL:                EtaN (DYNAMICS) S.D.=  6.63305979494051E-02
DEBUG_STATS_RL:                Uvel (DYNAMICS)  min= -4.34802359636369E-02
DEBUG_STATS_RL:                Uvel (DYNAMICS)  max=  9.99752242998815E-02
DEBUG_STATS_RL:                Uvel (DYNAMICS) mean=  3.48264152589411E-03
DEBUG_STATS_RL:                Uvel (DYNAMICS) S.D.=  1.35343125506332E-02
DEBUG_STATS_RL:                Vvel (DYNAMICS)  min= -1.33439207289231E-01
DEBUG_STATS_RL:                Vvel (DYNAMICS)  max=  5.60260700766977E-02
DEBUG_STATS_RL:                Vvel (DYNAMICS) mean= -4.02696574873536E-03
DEBUG_STATS_RL:                Vvel (DYNAMICS) S.D.=  1.80273334212939E-02
DEBUG_STATS_RL:                Wvel (DYNAMICS)  min= -2.73348162229351E-04
DEBUG_STATS_RL:                Wvel (DYNAMICS)  max=  3.13596923283705E-04
DEBUG_STATS_RL:                Wvel (DYNAMICS) mean=  4.73709411308765E-08
DEBUG_STATS_RL:                Wvel (DYNAMICS) S.D.=  2.82661454219218E-05
DEBUG_STATS_RL:               Theta (DYNAMICS)  min= -1.95943609422387E+00
DEBUG_STATS_RL:               Theta (DYNAMICS)  max=  1.32225113409295E+01
DEBUG_STATS_RL:               Theta (DYNAMICS) mean=  2.41480286619417E+00
DEBUG_STATS_RL:               Theta (DYNAMICS) S.D.=  2.57398860030337E+00
DEBUG_STATS_RL:                Salt (DYNAMICS)  min=  2.76387468555707E+01
DEBUG_STATS_RL:                Salt (DYNAMICS)  max=  3.54510358217953E+01
DEBUG_STATS_RL:                Salt (DYNAMICS) mean=  3.39367601804938E+01
DEBUG_STATS_RL:                Salt (DYNAMICS) S.D.=  1.15334890349894E+00
DEBUG_STATS_RL:                  Gu (DYNAMICS)  min= -5.98368153098782E-02
DEBUG_STATS_RL:                  Gu (DYNAMICS)  max=  9.68873121299260E-02
DEBUG_STATS_RL:                  Gu (DYNAMICS) mean=  1.30194972946264E-03
DEBUG_STATS_RL:                  Gu (DYNAMICS) S.D.=  1.61566615235773E-02
DEBUG_STATS_RL:                  Gv (DYNAMICS)  min= -1.36271217267979E-01
DEBUG_STATS_RL:                  Gv (DYNAMICS)  max=  3.83573237348401E-02
DEBUG_STATS_RL:                  Gv (DYNAMICS) mean= -7.71950831959455E-03
DEBUG_STATS_RL:                  Gv (DYNAMICS) S.D.=  1.77533563667862E-02
DEBUG_STATS_RL:               GuNm1 (DYNAMICS)  min= -3.40955168137045E-07
DEBUG_STATS_RL:               GuNm1 (DYNAMICS)  max=  1.82641400821312E-07
DEBUG_STATS_RL:               GuNm1 (DYNAMICS) mean= -2.79196714442946E-09
DEBUG_STATS_RL:               GuNm1 (DYNAMICS) S.D.=  4.07453533304465E-08
DEBUG_STATS_RL:               GvNm1 (DYNAMICS)  min= -2.14559263714318E-07
DEBUG_STATS_RL:               GvNm1 (DYNAMICS)  max=  1.94148824775178E-07
DEBUG_STATS_RL:               GvNm1 (DYNAMICS) mean= -4.04169206803379E-10
DEBUG_STATS_RL:               GvNm1 (DYNAMICS) S.D.=  4.19222729580510E-08
DEBUG_STATS_RL:               GtNm1 (DYNAMICS)  min=  0.00000000000000E+00
DEBUG_STATS_RL:               GtNm1 (DYNAMICS)  max=  0.00000000000000E+00
DEBUG_STATS_RL:               GtNm1 (DYNAMICS) mean=  0.00000000000000E+00
DEBUG_STATS_RL:               GtNm1 (DYNAMICS) S.D.=  0.00000000000000E+00
DEBUG_STATS_RL:               GsNm1 (DYNAMICS)  min=  0.00000000000000E+00
DEBUG_STATS_RL:               GsNm1 (DYNAMICS)  max=  0.00000000000000E+00
DEBUG_STATS_RL:               GsNm1 (DYNAMICS) mean=  0.00000000000000E+00
DEBUG_STATS_RL:               GsNm1 (DYNAMICS) S.D.=  0.00000000000000E+00
DEBUG_STATS_RL:    cg2d_b (SOLVE_FOR_PRESSURE)  min= -7.29975929937781E+03
DEBUG_STATS_RL:    cg2d_b (SOLVE_FOR_PRESSURE)  max=  2.19478299507068E+03
DEBUG_STATS_RL:    cg2d_b (SOLVE_FOR_PRESSURE) mean= -3.35565649341637E-13
DEBUG_STATS_RL:    cg2d_b (SOLVE_FOR_PRESSURE) S.D.=  8.94146290227952E+02
 cg2d: Sum(rhs),rhsMax =  -7.59808882477842E-15  1.17489186776822E+00
DEBUG_STATS_RL:    cg2d_x (SOLVE_FOR_PRESSURE)  min= -1.08771127617380E+00
DEBUG_STATS_RL:    cg2d_x (SOLVE_FOR_PRESSURE)  max=  3.12128519797241E+00
DEBUG_STATS_RL:    cg2d_x (SOLVE_FOR_PRESSURE) mean= -4.19588396851931E-02
DEBUG_STATS_RL:    cg2d_x (SOLVE_FOR_PRESSURE) S.D.=  6.20262122262941E-01
DEBUG_STATS_RL:          Uvel (THERMODYNAMICS)  min= -5.12375198266672E-02
DEBUG_STATS_RL:          Uvel (THERMODYNAMICS)  max=  8.84896388076347E-02
DEBUG_STATS_RL:          Uvel (THERMODYNAMICS) mean=  2.55769138537784E-03
DEBUG_STATS_RL:          Uvel (THERMODYNAMICS) S.D.=  1.29064693910740E-02
DEBUG_STATS_RL:          Vvel (THERMODYNAMICS)  min= -1.29344604199466E-01
DEBUG_STATS_RL:          Vvel (THERMODYNAMICS)  max=  4.58633296186262E-02
DEBUG_STATS_RL:          Vvel (THERMODYNAMICS) mean= -4.14107843006715E-03
DEBUG_STATS_RL:          Vvel (THERMODYNAMICS) S.D.=  1.66082836245823E-02
DEBUG_STATS_RL:          Wvel (THERMODYNAMICS)  min= -2.60848991809582E-04
DEBUG_STATS_RL:          Wvel (THERMODYNAMICS)  max=  2.85731299794389E-04
DEBUG_STATS_RL:          Wvel (THERMODYNAMICS) mean=  1.36793666177642E-07
DEBUG_STATS_RL:          Wvel (THERMODYNAMICS) S.D.=  2.70580054557632E-05
DEBUG_STATS_RL:         Theta (THERMODYNAMICS)  min= -1.95932886747261E+00
DEBUG_STATS_RL:         Theta (THERMODYNAMICS)  max=  1.32010303660582E+01
DEBUG_STATS_RL:         Theta (THERMODYNAMICS) mean=  2.41452315045422E+00
DEBUG_STATS_RL:         Theta (THERMODYNAMICS) S.D.=  2.57350774067654E+00
DEBUG_STATS_RL:          Salt (THERMODYNAMICS)  min=  2.76435505129419E+01
DEBUG_STATS_RL:          Salt (THERMODYNAMICS)  max=  3.54508660670958E+01
DEBUG_STATS_RL:          Salt (THERMODYNAMICS) mean=  3.39367749828865E+01
DEBUG_STATS_RL:          Salt (THERMODYNAMICS) S.D.=  1.15309738582401E+00
DEBUG_STATS_RL:         GtNm1 (THERMODYNAMICS)  min=  0.00000000000000E+00
DEBUG_STATS_RL:         GtNm1 (THERMODYNAMICS)  max=  0.00000000000000E+00
DEBUG_STATS_RL:         GtNm1 (THERMODYNAMICS) mean=  0.00000000000000E+00
DEBUG_STATS_RL:         GtNm1 (THERMODYNAMICS) S.D.=  0.00000000000000E+00
DEBUG_STATS_RL:         GsNm1 (THERMODYNAMICS)  min=  0.00000000000000E+00
DEBUG_STATS_RL:         GsNm1 (THERMODYNAMICS)  max=  0.00000000000000E+00
DEBUG_STATS_RL:         GsNm1 (THERMODYNAMICS) mean=  0.00000000000000E+00
DEBUG_STATS_RL:         GsNm1 (THERMODYNAMICS) S.D.=  0.00000000000000E+00
(PID.TID 0000.0001) Did not write pickup because writePickupAtEnd = FALSE
(PID.TID 0000.0001)  MDS_WRITE_FIELD: it,rec,kS,kL,kH=       1    10   1   1   1 file=m_sst_step.0000000001
(PID.TID 0000.0001) gencost # 03
(PID.TID 0000.0001)  MDS_READ_FIELD: opening global file: sigma_sst.bin
(PID.TID 0000.0001)  MDS_READ_FIELD: opening global file: m_sst_step.0000000001.data
(PID.TID 0000.0001)  MDS_READ_FIELD: opening global file: labsea_SST_fields_t10
(PID.TID 0000.0001)  MDS_WRITE_FIELD: it,rec,kS,kL,kH=       1     1   1   1   1 file=misfit_sst
(PID.TID 0000.0001)  MDS_READ_FIELD: opening global file: sigma_sst.bin
(PID.TID 0000.0001)  MDS_READ_FIELD: opening global file: m_sst_step.0000000001.data
(PID.TID 0000.0001)  MDS_READ_FIELD: opening global file: labsea_SST_fields_t10
(PID.TID 0000.0001)  MDS_WRITE_FIELD: it,rec,kS,kL,kH=       1     2   1   1   1 file=misfit_sst
(PID.TID 0000.0001)  MDS_READ_FIELD: opening global file: sigma_sst.bin
(PID.TID 0000.0001)  MDS_READ_FIELD: opening global file: m_sst_step.0000000001.data
(PID.TID 0000.0001)  MDS_READ_FIELD: opening global file: labsea_SST_fields_t10
(PID.TID 0000.0001)  MDS_WRITE_FIELD: it,rec,kS,kL,kH=       1     3   1   1   1 file=misfit_sst
(PID.TID 0000.0001)  MDS_READ_FIELD: opening global file: sigma_sst.bin
(PID.TID 0000.0001)  MDS_READ_FIELD: opening global file: m_sst_step.0000000001.data
(PID.TID 0000.0001)  MDS_READ_FIELD: opening global file: labsea_SST_fields_t10
(PID.TID 0000.0001)  MDS_WRITE_FIELD: it,rec,kS,kL,kH=       1     4   1   1   1 file=misfit_sst
(PID.TID 0000.0001)  MDS_READ_FIELD: opening global file: sigma_sst.bin
(PID.TID 0000.0001)  MDS_READ_FIELD: opening global file: m_sst_step.0000000001.data
(PID.TID 0000.0001)  MDS_READ_FIELD: opening global file: labsea_SST_fields_t10
(PID.TID 0000.0001)  MDS_WRITE_FIELD: it,rec,kS,kL,kH=       1     5   1   1   1 file=misfit_sst
(PID.TID 0000.0001)  MDS_READ_FIELD: opening global file: sigma_sst.bin
(PID.TID 0000.0001)  MDS_READ_FIELD: opening global file: m_sst_step.0000000001.data
(PID.TID 0000.0001)  MDS_READ_FIELD: opening global file: labsea_SST_fields_t10
(PID.TID 0000.0001)  MDS_WRITE_FIELD: it,rec,kS,kL,kH=       1     6   1   1   1 file=misfit_sst
(PID.TID 0000.0001)  MDS_READ_FIELD: opening global file: sigma_sst.bin
(PID.TID 0000.0001)  MDS_READ_FIELD: opening global file: m_sst_step.0000000001.data
(PID.TID 0000.0001)  MDS_READ_FIELD: opening global file: labsea_SST_fields_t10
(PID.TID 0000.0001)  MDS_WRITE_FIELD: it,rec,kS,kL,kH=       1     7   1   1   1 file=misfit_sst
(PID.TID 0000.0001)  MDS_READ_FIELD: opening global file: sigma_sst.bin
(PID.TID 0000.0001)  MDS_READ_FIELD: opening global file: m_sst_step.0000000001.data
(PID.TID 0000.0001)  MDS_READ_FIELD: opening global file: labsea_SST_fields_t10
(PID.TID 0000.0001)  MDS_WRITE_FIELD: it,rec,kS,kL,kH=       1     8   1   1   1 file=misfit_sst
(PID.TID 0000.0001)  MDS_READ_FIELD: opening global file: sigma_sst.bin
(PID.TID 0000.0001)  MDS_READ_FIELD: opening global file: m_sst_step.0000000001.data
(PID.TID 0000.0001)  MDS_READ_FIELD: opening global file: labsea_SST_fields_t10
(PID.TID 0000.0001)  MDS_WRITE_FIELD: it,rec,kS,kL,kH=       1     9   1   1   1 file=misfit_sst
(PID.TID 0000.0001)  MDS_READ_FIELD: opening global file: sigma_sst.bin
(PID.TID 0000.0001)  MDS_READ_FIELD: opening global file: m_sst_step.0000000001.data
(PID.TID 0000.0001)  MDS_READ_FIELD: opening global file: labsea_SST_fields_t10
(PID.TID 0000.0001)  MDS_WRITE_FIELD: it,rec,kS,kL,kH=       1    10   1   1   1 file=misfit_sst
(PID.TID 0000.0001)  MDS_READ_FIELD: opening global file: xx_atemp.0000000001.data
(PID.TID 0000.0001)  MDS_READ_FIELD: opening global file: xx_atemp.0000000001.data
(PID.TID 0000.0001)  MDS_READ_FIELD: opening global file: xx_atemp.0000000001.data
(PID.TID 0000.0001)  MDS_READ_FIELD: opening global file: xx_atemp.0000000001.data
(PID.TID 0000.0001)  MDS_READ_FIELD: opening global file: xx_atemp.0000000001.data
(PID.TID 0000.0001)  MDS_READ_FIELD: opening global file: xx_atemp.0000000001.data
(PID.TID 0000.0001)  MDS_READ_FIELD: opening global file: xx_atemp.0000000001.data
(PID.TID 0000.0001)  MDS_READ_FIELD: opening global file: xx_atemp.0000000001.data
(PID.TID 0000.0001)  MDS_READ_FIELD: opening global file: xx_atemp.0000000001.data
(PID.TID 0000.0001)  MDS_READ_FIELD: opening global file: xx_atemp.0000000001.data
(PID.TID 0000.0001)  MDS_READ_FIELD: opening global file: xx_atemp.0000000001.data
 --> f_ice     = 0.000000000000000D+00
 --> f_smrarea = 0.000000000000000D+00
 --> f_smrarea = 0.000000000000000D+00
 --> f_smrarea = 0.000000000000000D+00
(PID.TID 0000.0001)  --> f_gencost = 0.527453128215448D+04 3
(PID.TID 0000.0001)  --> f_gentim2d = 0.243375020010000D+03 1
(PID.TID 0000.0001)  --> fc               = 0.527453128215448D+04
(PID.TID 0000.0001)  cost_Final: final cost function =  0.527453128215448D+04
(PID.TID 0000.0001) 
(PID.TID 0000.0001)              cost function evaluation finished.
(PID.TID 0000.0001) 
(PID.TID 0000.0001)   early fc =  0.000000000000000D+00
(PID.TID 0000.0001)   local fc =  0.527453128215448D+04
(PID.TID 0000.0001)  global fc =  0.527453128215448D+04
(PID.TID 0000.0001) grdchk perturb(+)fc: fcpertplus  =  5.27453128215448E+03
(PID.TID 0000.0001)  MDS_READ_FIELD: opening global file: xx_atemp.0000000001.data
(PID.TID 0000.0001)  MDS_WRITE_FIELD: it,rec,kS,kL,kH=       1     1   1   1   1 file=xx_atemp.0000000001
(PID.TID 0000.0001)  MDS_READ_FIELD: opening global file: xx_atemp.0000000001.data
(PID.TID 0000.0001)  MDS_WRITE_FIELD: it,rec,kS,kL,kH=       1     1   1   1   1 file=xx_atemp.0000000001
(PID.TID 0000.0001)  MDS_READ_FIELD: opening global file: LevCli_temp.labsea1979
(PID.TID 0000.0001)  MDS_READ_FIELD: opening global file: LevCli_salt.labsea1979
(PID.TID 0000.0001) Start initial hydrostatic pressure computation
(PID.TID 0000.0001) Pressure is predetermined for buoyancyRelation OCEANIC
(PID.TID 0000.0001) 
(PID.TID 0000.0001) CTRL_INIT_REC: Getting record indices for xx_atemp
(PID.TID 0000.0001) CTRL_INIT_REC: Record indices for xx_atemp:
(PID.TID 0000.0001) CTRL_INIT_REC: startrec =          1, endrec =         11
(PID.TID 0000.0001)  MDS_READ_FIELD: opening global file: xx_atemp.0000000001.data
(PID.TID 0000.0001)  MDS_WRITE_FIELD: it,rec,kS,kL,kH=       1     1   1   1   1 file=xx_atemp.effective.0000000001
(PID.TID 0000.0001)  MDS_READ_FIELD: opening global file: xx_atemp.0000000001.data
(PID.TID 0000.0001)  MDS_WRITE_FIELD: it,rec,kS,kL,kH=       1     2   1   1   1 file=xx_atemp.effective.0000000001
(PID.TID 0000.0001)  MDS_READ_FIELD: opening global file: xx_atemp.0000000001.data
(PID.TID 0000.0001)  MDS_WRITE_FIELD: it,rec,kS,kL,kH=       1     3   1   1   1 file=xx_atemp.effective.0000000001
(PID.TID 0000.0001)  MDS_READ_FIELD: opening global file: xx_atemp.0000000001.data
(PID.TID 0000.0001)  MDS_WRITE_FIELD: it,rec,kS,kL,kH=       1     4   1   1   1 file=xx_atemp.effective.0000000001
(PID.TID 0000.0001)  MDS_READ_FIELD: opening global file: xx_atemp.0000000001.data
(PID.TID 0000.0001)  MDS_WRITE_FIELD: it,rec,kS,kL,kH=       1     5   1   1   1 file=xx_atemp.effective.0000000001
(PID.TID 0000.0001)  MDS_READ_FIELD: opening global file: xx_atemp.0000000001.data
(PID.TID 0000.0001)  MDS_WRITE_FIELD: it,rec,kS,kL,kH=       1     6   1   1   1 file=xx_atemp.effective.0000000001
(PID.TID 0000.0001)  MDS_READ_FIELD: opening global file: xx_atemp.0000000001.data
(PID.TID 0000.0001)  MDS_WRITE_FIELD: it,rec,kS,kL,kH=       1     7   1   1   1 file=xx_atemp.effective.0000000001
(PID.TID 0000.0001)  MDS_READ_FIELD: opening global file: xx_atemp.0000000001.data
(PID.TID 0000.0001)  MDS_WRITE_FIELD: it,rec,kS,kL,kH=       1     8   1   1   1 file=xx_atemp.effective.0000000001
(PID.TID 0000.0001)  MDS_READ_FIELD: opening global file: xx_atemp.0000000001.data
(PID.TID 0000.0001)  MDS_WRITE_FIELD: it,rec,kS,kL,kH=       1     9   1   1   1 file=xx_atemp.effective.0000000001
(PID.TID 0000.0001)  MDS_READ_FIELD: opening global file: xx_atemp.0000000001.data
(PID.TID 0000.0001)  MDS_WRITE_FIELD: it,rec,kS,kL,kH=       1    10   1   1   1 file=xx_atemp.effective.0000000001
(PID.TID 0000.0001)  MDS_READ_FIELD: opening global file: xx_atemp.0000000001.data
(PID.TID 0000.0001)  MDS_WRITE_FIELD: it,rec,kS,kL,kH=       1    11   1   1   1 file=xx_atemp.effective.0000000001
(PID.TID 0000.0001)  MDS_READ_FIELD: opening global file: xx_atemp.effective.0000000001.data
(PID.TID 0000.0001)  MDS_READ_FIELD: opening global file: ones_64b.bin
(PID.TID 0000.0001)  MDS_WRITE_FIELD: it,rec,kS,kL,kH=       1     1   1   1   1 file=xx_atemp.effective.0000000001
(PID.TID 0000.0001)  MDS_READ_FIELD: opening global file: xx_atemp.effective.0000000001.data
(PID.TID 0000.0001)  MDS_READ_FIELD: opening global file: ones_64b.bin
(PID.TID 0000.0001)  MDS_WRITE_FIELD: it,rec,kS,kL,kH=       1     2   1   1   1 file=xx_atemp.effective.0000000001
(PID.TID 0000.0001)  MDS_READ_FIELD: opening global file: xx_atemp.effective.0000000001.data
(PID.TID 0000.0001)  MDS_READ_FIELD: opening global file: ones_64b.bin
(PID.TID 0000.0001)  MDS_WRITE_FIELD: it,rec,kS,kL,kH=       1     3   1   1   1 file=xx_atemp.effective.0000000001
(PID.TID 0000.0001)  MDS_READ_FIELD: opening global file: xx_atemp.effective.0000000001.data
(PID.TID 0000.0001)  MDS_READ_FIELD: opening global file: ones_64b.bin
(PID.TID 0000.0001)  MDS_WRITE_FIELD: it,rec,kS,kL,kH=       1     4   1   1   1 file=xx_atemp.effective.0000000001
(PID.TID 0000.0001)  MDS_READ_FIELD: opening global file: xx_atemp.effective.0000000001.data
(PID.TID 0000.0001)  MDS_READ_FIELD: opening global file: ones_64b.bin
(PID.TID 0000.0001)  MDS_WRITE_FIELD: it,rec,kS,kL,kH=       1     5   1   1   1 file=xx_atemp.effective.0000000001
(PID.TID 0000.0001)  MDS_READ_FIELD: opening global file: xx_atemp.effective.0000000001.data
(PID.TID 0000.0001)  MDS_READ_FIELD: opening global file: ones_64b.bin
(PID.TID 0000.0001)  MDS_WRITE_FIELD: it,rec,kS,kL,kH=       1     6   1   1   1 file=xx_atemp.effective.0000000001
(PID.TID 0000.0001)  MDS_READ_FIELD: opening global file: xx_atemp.effective.0000000001.data
(PID.TID 0000.0001)  MDS_READ_FIELD: opening global file: ones_64b.bin
(PID.TID 0000.0001)  MDS_WRITE_FIELD: it,rec,kS,kL,kH=       1     7   1   1   1 file=xx_atemp.effective.0000000001
(PID.TID 0000.0001)  MDS_READ_FIELD: opening global file: xx_atemp.effective.0000000001.data
(PID.TID 0000.0001)  MDS_READ_FIELD: opening global file: ones_64b.bin
(PID.TID 0000.0001)  MDS_WRITE_FIELD: it,rec,kS,kL,kH=       1     8   1   1   1 file=xx_atemp.effective.0000000001
(PID.TID 0000.0001)  MDS_READ_FIELD: opening global file: xx_atemp.effective.0000000001.data
(PID.TID 0000.0001)  MDS_READ_FIELD: opening global file: ones_64b.bin
(PID.TID 0000.0001)  MDS_WRITE_FIELD: it,rec,kS,kL,kH=       1     9   1   1   1 file=xx_atemp.effective.0000000001
(PID.TID 0000.0001)  MDS_READ_FIELD: opening global file: xx_atemp.effective.0000000001.data
(PID.TID 0000.0001)  MDS_READ_FIELD: opening global file: ones_64b.bin
(PID.TID 0000.0001)  MDS_WRITE_FIELD: it,rec,kS,kL,kH=       1    10   1   1   1 file=xx_atemp.effective.0000000001
(PID.TID 0000.0001)  MDS_READ_FIELD: opening global file: xx_atemp.effective.0000000001.data
(PID.TID 0000.0001)  MDS_READ_FIELD: opening global file: ones_64b.bin
(PID.TID 0000.0001)  MDS_WRITE_FIELD: it,rec,kS,kL,kH=       1    11   1   1   1 file=xx_atemp.effective.0000000001
(PID.TID 0000.0001) // =======================================================
(PID.TID 0000.0001) // Model current state
(PID.TID 0000.0001) // =======================================================
(PID.TID 0000.0001) 
(PID.TID 0000.0001)  MDS_WRITE_FIELD: it,rec,kS,kL,kH=       1     1   1   1   1 file=m_sst_step.0000000001
(PID.TID 0000.0001)  MDS_READ_FIELD: opening global file: xx_atemp.effective.0000000001.data
(PID.TID 0000.0001)  MDS_READ_FIELD: opening global file: xx_atemp.effective.0000000001.data
(PID.TID 0000.0001) EXF_SET_FLD: processing field "climsss",  file: SSS_monthly.labsea1979
(PID.TID 0000.0001) EXF_SET_FLD:   myIter, count0, count1:         0      1      2
(PID.TID 0000.0001) EXF_SET_FLD:   first, changed, fac:   T   F    0.50000000000000000
(PID.TID 0000.0001) EXF_SET_FLD: field "climsss", it=         0, loading rec=     1
(PID.TID 0000.0001) EXF_SET_FLD:   from file: "SSS_monthly.labsea1979"
(PID.TID 0000.0001)  MDS_READ_FIELD: opening global file: SSS_monthly.labsea1979
(PID.TID 0000.0001) EXF_SET_FLD: field "climsss", it=         0, loading rec=     2
(PID.TID 0000.0001) EXF_SET_FLD:   from file: "SSS_monthly.labsea1979"
(PID.TID 0000.0001)  MDS_READ_FIELD: opening global file: SSS_monthly.labsea1979
(PID.TID 0000.0001) EXF_SET_FLD: processing field "uwind",  file: u10m.labsea1979
(PID.TID 0000.0001) EXF_SET_FLD:   myIter, count0, count1:         0      1      2
(PID.TID 0000.0001) EXF_SET_FLD:   first, changed, fac:   T   F    0.50000000000000000
(PID.TID 0000.0001) EXF_SET_FLD: field "uwind", it=         0, loading rec=     1
(PID.TID 0000.0001) EXF_SET_FLD:   from file: "u10m.labsea1979"
(PID.TID 0000.0001)  MDS_READ_FIELD: opening global file: u10m.labsea1979
(PID.TID 0000.0001) EXF_SET_FLD: field "uwind", it=         0, loading rec=     2
(PID.TID 0000.0001) EXF_SET_FLD:   from file: "u10m.labsea1979"
(PID.TID 0000.0001)  MDS_READ_FIELD: opening global file: u10m.labsea1979
(PID.TID 0000.0001) EXF_SET_FLD: processing field "vwind",  file: v10m.labsea1979
(PID.TID 0000.0001) EXF_SET_FLD:   myIter, count0, count1:         0      1      2
(PID.TID 0000.0001) EXF_SET_FLD:   first, changed, fac:   T   F    0.50000000000000000
(PID.TID 0000.0001) EXF_SET_FLD: field "vwind", it=         0, loading rec=     1
(PID.TID 0000.0001) EXF_SET_FLD:   from file: "v10m.labsea1979"
(PID.TID 0000.0001)  MDS_READ_FIELD: opening global file: v10m.labsea1979
(PID.TID 0000.0001) EXF_SET_FLD: field "vwind", it=         0, loading rec=     2
(PID.TID 0000.0001) EXF_SET_FLD:   from file: "v10m.labsea1979"
(PID.TID 0000.0001)  MDS_READ_FIELD: opening global file: v10m.labsea1979
(PID.TID 0000.0001) EXF_SET_FLD: processing field "atemp",  file: tair.labsea1979
(PID.TID 0000.0001) EXF_SET_FLD:   myIter, count0, count1:         0      1      2
(PID.TID 0000.0001) EXF_SET_FLD:   first, changed, fac:   T   F    0.50000000000000000
(PID.TID 0000.0001) EXF_SET_FLD: field "atemp", it=         0, loading rec=     1
(PID.TID 0000.0001) EXF_SET_FLD:   from file: "tair.labsea1979"
(PID.TID 0000.0001)  MDS_READ_FIELD: opening global file: tair.labsea1979
(PID.TID 0000.0001) EXF_SET_FLD: field "atemp", it=         0, loading rec=     2
(PID.TID 0000.0001) EXF_SET_FLD:   from file: "tair.labsea1979"
(PID.TID 0000.0001)  MDS_READ_FIELD: opening global file: tair.labsea1979
(PID.TID 0000.0001) EXF_SET_FLD: processing field "aqh",  file: qa.labsea1979
(PID.TID 0000.0001) EXF_SET_FLD:   myIter, count0, count1:         0      1      2
(PID.TID 0000.0001) EXF_SET_FLD:   first, changed, fac:   T   F    0.50000000000000000
(PID.TID 0000.0001) EXF_SET_FLD: field "aqh", it=         0, loading rec=     1
(PID.TID 0000.0001) EXF_SET_FLD:   from file: "qa.labsea1979"
(PID.TID 0000.0001)  MDS_READ_FIELD: opening global file: qa.labsea1979
(PID.TID 0000.0001) EXF_SET_FLD: field "aqh", it=         0, loading rec=     2
(PID.TID 0000.0001) EXF_SET_FLD:   from file: "qa.labsea1979"
(PID.TID 0000.0001)  MDS_READ_FIELD: opening global file: qa.labsea1979
(PID.TID 0000.0001) EXF_SET_FLD: processing field "precip",  file: prate.labsea1979
(PID.TID 0000.0001) EXF_SET_FLD:   myIter, count0, count1:         0      1      2
(PID.TID 0000.0001) EXF_SET_FLD:   first, changed, fac:   T   F    0.50000000000000000
(PID.TID 0000.0001) EXF_SET_FLD: field "precip", it=         0, loading rec=     1
(PID.TID 0000.0001) EXF_SET_FLD:   from file: "prate.labsea1979"
(PID.TID 0000.0001)  MDS_READ_FIELD: opening global file: prate.labsea1979
(PID.TID 0000.0001) EXF_SET_FLD: field "precip", it=         0, loading rec=     2
(PID.TID 0000.0001) EXF_SET_FLD:   from file: "prate.labsea1979"
(PID.TID 0000.0001)  MDS_READ_FIELD: opening global file: prate.labsea1979
(PID.TID 0000.0001) EXF_SET_FLD: processing field "swdown",  file: fsh.labsea1979
(PID.TID 0000.0001) EXF_SET_FLD:   myIter, count0, count1:         0      1      2
(PID.TID 0000.0001) EXF_SET_FLD:   first, changed, fac:   T   F    0.50000000000000000
(PID.TID 0000.0001) EXF_SET_FLD: field "swdown", it=         0, loading rec=     1
(PID.TID 0000.0001) EXF_SET_FLD:   from file: "fsh.labsea1979"
(PID.TID 0000.0001)  MDS_READ_FIELD: opening global file: fsh.labsea1979
(PID.TID 0000.0001) EXF_SET_FLD: field "swdown", it=         0, loading rec=     2
(PID.TID 0000.0001) EXF_SET_FLD:   from file: "fsh.labsea1979"
(PID.TID 0000.0001)  MDS_READ_FIELD: opening global file: fsh.labsea1979
(PID.TID 0000.0001) EXF_SET_FLD: processing field "lwdown",  file: flo.labsea1979
(PID.TID 0000.0001) EXF_SET_FLD:   myIter, count0, count1:         0      1      2
(PID.TID 0000.0001) EXF_SET_FLD:   first, changed, fac:   T   F    0.50000000000000000
(PID.TID 0000.0001) EXF_SET_FLD: field "lwdown", it=         0, loading rec=     1
(PID.TID 0000.0001) EXF_SET_FLD:   from file: "flo.labsea1979"
(PID.TID 0000.0001)  MDS_READ_FIELD: opening global file: flo.labsea1979
(PID.TID 0000.0001) EXF_SET_FLD: field "lwdown", it=         0, loading rec=     2
(PID.TID 0000.0001) EXF_SET_FLD:   from file: "flo.labsea1979"
(PID.TID 0000.0001)  MDS_READ_FIELD: opening global file: flo.labsea1979
DEBUG_STATS_RL: Uice pre  iter (SEAICE_LSR  1)  min=  0.00000000000000E+00
DEBUG_STATS_RL: Uice pre  iter (SEAICE_LSR  1)  max=  0.00000000000000E+00
DEBUG_STATS_RL: Uice pre  iter (SEAICE_LSR  1) mean=  0.00000000000000E+00
DEBUG_STATS_RL: Uice pre  iter (SEAICE_LSR  1) S.D.=  0.00000000000000E+00
DEBUG_STATS_RL: Vice pre  iter (SEAICE_LSR  1)  min=  0.00000000000000E+00
DEBUG_STATS_RL: Vice pre  iter (SEAICE_LSR  1)  max=  0.00000000000000E+00
DEBUG_STATS_RL: Vice pre  iter (SEAICE_LSR  1) mean=  0.00000000000000E+00
DEBUG_STATS_RL: Vice pre  iter (SEAICE_LSR  1) S.D.=  0.00000000000000E+00
DEBUG_STATS_RL: Uice pre  iter (SEAICE_LSR  2)  min= -4.74478293331770E-04
DEBUG_STATS_RL: Uice pre  iter (SEAICE_LSR  2)  max=  5.19863184318560E-03
DEBUG_STATS_RL: Uice pre  iter (SEAICE_LSR  2) mean=  1.15969103043184E-03
DEBUG_STATS_RL: Uice pre  iter (SEAICE_LSR  2) S.D.=  1.37050304765703E-03
DEBUG_STATS_RL: Vice pre  iter (SEAICE_LSR  2)  min= -2.82028703630720E-03
DEBUG_STATS_RL: Vice pre  iter (SEAICE_LSR  2)  max=  8.55909305417855E-04
DEBUG_STATS_RL: Vice pre  iter (SEAICE_LSR  2) mean= -7.32602707228794E-04
DEBUG_STATS_RL: Vice pre  iter (SEAICE_LSR  2) S.D.=  9.65742386214621E-04
DEBUG_STATS_RL:                EtaN (DYNAMICS)  min=  0.00000000000000E+00
DEBUG_STATS_RL:                EtaN (DYNAMICS)  max=  0.00000000000000E+00
DEBUG_STATS_RL:                EtaN (DYNAMICS) mean=  0.00000000000000E+00
DEBUG_STATS_RL:                EtaN (DYNAMICS) S.D.=  0.00000000000000E+00
DEBUG_STATS_RL:                Uvel (DYNAMICS)  min=  0.00000000000000E+00
DEBUG_STATS_RL:                Uvel (DYNAMICS)  max=  0.00000000000000E+00
DEBUG_STATS_RL:                Uvel (DYNAMICS) mean=  0.00000000000000E+00
DEBUG_STATS_RL:                Uvel (DYNAMICS) S.D.=  0.00000000000000E+00
DEBUG_STATS_RL:                Vvel (DYNAMICS)  min=  0.00000000000000E+00
DEBUG_STATS_RL:                Vvel (DYNAMICS)  max=  0.00000000000000E+00
DEBUG_STATS_RL:                Vvel (DYNAMICS) mean=  0.00000000000000E+00
DEBUG_STATS_RL:                Vvel (DYNAMICS) S.D.=  0.00000000000000E+00
DEBUG_STATS_RL:                Wvel (DYNAMICS)  min=  0.00000000000000E+00
DEBUG_STATS_RL:                Wvel (DYNAMICS)  max=  0.00000000000000E+00
DEBUG_STATS_RL:                Wvel (DYNAMICS) mean=  0.00000000000000E+00
DEBUG_STATS_RL:                Wvel (DYNAMICS) S.D.=  0.00000000000000E+00
DEBUG_STATS_RL:               Theta (DYNAMICS)  min= -1.41036188602448E+00
DEBUG_STATS_RL:               Theta (DYNAMICS)  max=  1.33330764770508E+01
DEBUG_STATS_RL:               Theta (DYNAMICS) mean=  2.90475522269124E+00
DEBUG_STATS_RL:               Theta (DYNAMICS) S.D.=  2.44037465259698E+00
DEBUG_STATS_RL:                Salt (DYNAMICS)  min=  3.01286983489990E+01
DEBUG_STATS_RL:                Salt (DYNAMICS)  max=  3.54506225585938E+01
DEBUG_STATS_RL:                Salt (DYNAMICS) mean=  3.40845304745500E+01
DEBUG_STATS_RL:                Salt (DYNAMICS) S.D.=  9.00924836964808E-01
DEBUG_STATS_RL:                  Gu (DYNAMICS)  min= -2.00599447531986E-02
DEBUG_STATS_RL:                  Gu (DYNAMICS)  max=  1.04076999541495E-02
DEBUG_STATS_RL:                  Gu (DYNAMICS) mean= -2.58939542765896E-03
DEBUG_STATS_RL:                  Gu (DYNAMICS) S.D.=  4.84472279217175E-03
DEBUG_STATS_RL:                  Gv (DYNAMICS)  min= -2.97181268783620E-02
DEBUG_STATS_RL:                  Gv (DYNAMICS)  max=  1.05795727308992E-02
DEBUG_STATS_RL:                  Gv (DYNAMICS) mean= -1.51075895161939E-03
DEBUG_STATS_RL:                  Gv (DYNAMICS) S.D.=  5.23505354600419E-03
DEBUG_STATS_RL:               GuNm1 (DYNAMICS)  min=  0.00000000000000E+00
DEBUG_STATS_RL:               GuNm1 (DYNAMICS)  max=  0.00000000000000E+00
DEBUG_STATS_RL:               GuNm1 (DYNAMICS) mean=  0.00000000000000E+00
DEBUG_STATS_RL:               GuNm1 (DYNAMICS) S.D.=  0.00000000000000E+00
DEBUG_STATS_RL:               GvNm1 (DYNAMICS)  min=  0.00000000000000E+00
DEBUG_STATS_RL:               GvNm1 (DYNAMICS)  max=  0.00000000000000E+00
DEBUG_STATS_RL:               GvNm1 (DYNAMICS) mean=  0.00000000000000E+00
DEBUG_STATS_RL:               GvNm1 (DYNAMICS) S.D.=  0.00000000000000E+00
DEBUG_STATS_RL:               GtNm1 (DYNAMICS)  min=  0.00000000000000E+00
DEBUG_STATS_RL:               GtNm1 (DYNAMICS)  max=  0.00000000000000E+00
DEBUG_STATS_RL:               GtNm1 (DYNAMICS) mean=  0.00000000000000E+00
DEBUG_STATS_RL:               GtNm1 (DYNAMICS) S.D.=  0.00000000000000E+00
DEBUG_STATS_RL:               GsNm1 (DYNAMICS)  min=  0.00000000000000E+00
DEBUG_STATS_RL:               GsNm1 (DYNAMICS)  max=  0.00000000000000E+00
DEBUG_STATS_RL:               GsNm1 (DYNAMICS) mean=  0.00000000000000E+00
DEBUG_STATS_RL:               GsNm1 (DYNAMICS) S.D.=  0.00000000000000E+00
(PID.TID 0000.0001) SOLVE_FOR_PRESSURE: putPmEinXvector =    F
DEBUG_STATS_RL:    cg2d_b (SOLVE_FOR_PRESSURE)  min= -6.15797366908278E+03
DEBUG_STATS_RL:    cg2d_b (SOLVE_FOR_PRESSURE)  max=  2.03762696322118E+03
DEBUG_STATS_RL:    cg2d_b (SOLVE_FOR_PRESSURE) mean=  2.40637139844087E-14
DEBUG_STATS_RL:    cg2d_b (SOLVE_FOR_PRESSURE) S.D.=  8.03730450548215E+02
 cg2d: Sum(rhs),rhsMax =   7.91033905045424E-16  9.91122157459750E-01
DEBUG_STATS_RL:    cg2d_x (SOLVE_FOR_PRESSURE)  min= -7.77200124675132E-01
DEBUG_STATS_RL:    cg2d_x (SOLVE_FOR_PRESSURE)  max=  2.02552651121663E+00
DEBUG_STATS_RL:    cg2d_x (SOLVE_FOR_PRESSURE) mean= -8.58037095103906E-03
DEBUG_STATS_RL:    cg2d_x (SOLVE_FOR_PRESSURE) S.D.=  4.14863218307968E-01
DEBUG_STATS_RL:          Uvel (THERMODYNAMICS)  min= -1.97613285723242E-02
DEBUG_STATS_RL:          Uvel (THERMODYNAMICS)  max=  1.31897193240012E-02
DEBUG_STATS_RL:          Uvel (THERMODYNAMICS) mean= -7.76915115649382E-04
DEBUG_STATS_RL:          Uvel (THERMODYNAMICS) S.D.=  3.97168834923499E-03
DEBUG_STATS_RL:          Vvel (THERMODYNAMICS)  min= -1.13773235335529E-02
DEBUG_STATS_RL:          Vvel (THERMODYNAMICS)  max=  2.04284639774261E-02
DEBUG_STATS_RL:          Vvel (THERMODYNAMICS) mean=  7.24190880687442E-04
DEBUG_STATS_RL:          Vvel (THERMODYNAMICS) S.D.=  4.28907995073846E-03
DEBUG_STATS_RL:          Wvel (THERMODYNAMICS)  min= -4.27131465138430E-05
DEBUG_STATS_RL:          Wvel (THERMODYNAMICS)  max=  1.16530364658749E-04
DEBUG_STATS_RL:          Wvel (THERMODYNAMICS) mean= -4.07763417598552E-07
DEBUG_STATS_RL:          Wvel (THERMODYNAMICS) S.D.=  1.80149904412009E-05
DEBUG_STATS_RL:         Theta (THERMODYNAMICS)  min= -1.41019615972461E+00
DEBUG_STATS_RL:         Theta (THERMODYNAMICS)  max=  1.32440592110212E+01
DEBUG_STATS_RL:         Theta (THERMODYNAMICS) mean=  2.49735783552472E+00
DEBUG_STATS_RL:         Theta (THERMODYNAMICS) S.D.=  2.45807980529386E+00
DEBUG_STATS_RL:          Salt (THERMODYNAMICS)  min=  2.76560994014067E+01
DEBUG_STATS_RL:          Salt (THERMODYNAMICS)  max=  3.54507778736995E+01
DEBUG_STATS_RL:          Salt (THERMODYNAMICS) mean=  3.39623217189240E+01
DEBUG_STATS_RL:          Salt (THERMODYNAMICS) S.D.=  1.10108958710357E+00
DEBUG_STATS_RL:         GtNm1 (THERMODYNAMICS)  min=  0.00000000000000E+00
DEBUG_STATS_RL:         GtNm1 (THERMODYNAMICS)  max=  0.00000000000000E+00
DEBUG_STATS_RL:         GtNm1 (THERMODYNAMICS) mean=  0.00000000000000E+00
DEBUG_STATS_RL:         GtNm1 (THERMODYNAMICS) S.D.=  0.00000000000000E+00
DEBUG_STATS_RL:         GsNm1 (THERMODYNAMICS)  min=  0.00000000000000E+00
DEBUG_STATS_RL:         GsNm1 (THERMODYNAMICS)  max=  0.00000000000000E+00
DEBUG_STATS_RL:         GsNm1 (THERMODYNAMICS) mean=  0.00000000000000E+00
DEBUG_STATS_RL:         GsNm1 (THERMODYNAMICS) S.D.=  0.00000000000000E+00
(PID.TID 0000.0001)  MDS_WRITE_FIELD: it,rec,kS,kL,kH=       1     2   1   1   1 file=m_sst_step.0000000001
(PID.TID 0000.0001)  MDS_READ_FIELD: opening global file: xx_atemp.effective.0000000001.data
(PID.TID 0000.0001) EXF_SET_FLD: processing field "climsss",  file: SSS_monthly.labsea1979
(PID.TID 0000.0001) EXF_SET_FLD:   myIter, count0, count1:         1      1      2
(PID.TID 0000.0001) EXF_SET_FLD:   first, changed, fac:   F   F    0.49863387978142082
(PID.TID 0000.0001) EXF_SET_FLD: processing field "uwind",  file: u10m.labsea1979
(PID.TID 0000.0001) EXF_SET_FLD:   myIter, count0, count1:         1      1      2
(PID.TID 0000.0001) EXF_SET_FLD:   first, changed, fac:   F   F    0.49863387978142082
(PID.TID 0000.0001) EXF_SET_FLD: processing field "vwind",  file: v10m.labsea1979
(PID.TID 0000.0001) EXF_SET_FLD:   myIter, count0, count1:         1      1      2
(PID.TID 0000.0001) EXF_SET_FLD:   first, changed, fac:   F   F    0.49863387978142082
(PID.TID 0000.0001) EXF_SET_FLD: processing field "atemp",  file: tair.labsea1979
(PID.TID 0000.0001) EXF_SET_FLD:   myIter, count0, count1:         1      1      2
(PID.TID 0000.0001) EXF_SET_FLD:   first, changed, fac:   F   F    0.49863387978142082
(PID.TID 0000.0001) EXF_SET_FLD: processing field "aqh",  file: qa.labsea1979
(PID.TID 0000.0001) EXF_SET_FLD:   myIter, count0, count1:         1      1      2
(PID.TID 0000.0001) EXF_SET_FLD:   first, changed, fac:   F   F    0.49863387978142082
(PID.TID 0000.0001) EXF_SET_FLD: processing field "precip",  file: prate.labsea1979
(PID.TID 0000.0001) EXF_SET_FLD:   myIter, count0, count1:         1      1      2
(PID.TID 0000.0001) EXF_SET_FLD:   first, changed, fac:   F   F    0.49863387978142082
(PID.TID 0000.0001) EXF_SET_FLD: processing field "swdown",  file: fsh.labsea1979
(PID.TID 0000.0001) EXF_SET_FLD:   myIter, count0, count1:         1      1      2
(PID.TID 0000.0001) EXF_SET_FLD:   first, changed, fac:   F   F    0.49863387978142082
(PID.TID 0000.0001) EXF_SET_FLD: processing field "lwdown",  file: flo.labsea1979
(PID.TID 0000.0001) EXF_SET_FLD:   myIter, count0, count1:         1      1      2
(PID.TID 0000.0001) EXF_SET_FLD:   first, changed, fac:   F   F    0.49863387978142082
DEBUG_STATS_RL: Uice pre  iter (SEAICE_LSR  1)  min= -1.15942749827435E-03
DEBUG_STATS_RL: Uice pre  iter (SEAICE_LSR  1)  max=  1.20418167656252E-02
DEBUG_STATS_RL: Uice pre  iter (SEAICE_LSR  1) mean=  2.64506216410235E-03
DEBUG_STATS_RL: Uice pre  iter (SEAICE_LSR  1) S.D.=  3.13774756817759E-03
DEBUG_STATS_RL: Vice pre  iter (SEAICE_LSR  1)  min= -5.99336397479914E-03
DEBUG_STATS_RL: Vice pre  iter (SEAICE_LSR  1)  max=  4.08760906980194E-03
DEBUG_STATS_RL: Vice pre  iter (SEAICE_LSR  1) mean= -1.18494610218030E-03
DEBUG_STATS_RL: Vice pre  iter (SEAICE_LSR  1) S.D.=  2.51572614879252E-03
DEBUG_STATS_RL: Uice pre  iter (SEAICE_LSR  2)  min= -1.66461661595648E-03
DEBUG_STATS_RL: Uice pre  iter (SEAICE_LSR  2)  max=  2.05817158221004E-01
DEBUG_STATS_RL: Uice pre  iter (SEAICE_LSR  2) mean=  2.18937658776526E-02
DEBUG_STATS_RL: Uice pre  iter (SEAICE_LSR  2) S.D.=  4.15140060700939E-02
DEBUG_STATS_RL: Vice pre  iter (SEAICE_LSR  2)  min= -1.15170217242268E-02
DEBUG_STATS_RL: Vice pre  iter (SEAICE_LSR  2)  max=  6.02623623339015E-02
DEBUG_STATS_RL: Vice pre  iter (SEAICE_LSR  2) mean= -5.88552864105300E-04
DEBUG_STATS_RL: Vice pre  iter (SEAICE_LSR  2) S.D.=  1.21471679479422E-02
DEBUG_STATS_RL:                EtaN (DYNAMICS)  min= -7.91800933896177E-02
DEBUG_STATS_RL:                EtaN (DYNAMICS)  max=  2.06357890624784E-01
DEBUG_STATS_RL:                EtaN (DYNAMICS) mean= -8.74156541733471E-04
DEBUG_STATS_RL:                EtaN (DYNAMICS) S.D.=  4.22657013639480E-02
DEBUG_STATS_RL:                Uvel (DYNAMICS)  min= -1.97613285723242E-02
DEBUG_STATS_RL:                Uvel (DYNAMICS)  max=  1.31897193240012E-02
DEBUG_STATS_RL:                Uvel (DYNAMICS) mean= -7.76915115649382E-04
DEBUG_STATS_RL:                Uvel (DYNAMICS) S.D.=  3.97168834923499E-03
DEBUG_STATS_RL:                Vvel (DYNAMICS)  min= -1.13773235335529E-02
DEBUG_STATS_RL:                Vvel (DYNAMICS)  max=  2.04284639774261E-02
DEBUG_STATS_RL:                Vvel (DYNAMICS) mean=  7.24190880687442E-04
DEBUG_STATS_RL:                Vvel (DYNAMICS) S.D.=  4.28907995073846E-03
DEBUG_STATS_RL:                Wvel (DYNAMICS)  min= -4.27131465138430E-05
DEBUG_STATS_RL:                Wvel (DYNAMICS)  max=  1.16530364658749E-04
DEBUG_STATS_RL:                Wvel (DYNAMICS) mean= -4.07763417598552E-07
DEBUG_STATS_RL:                Wvel (DYNAMICS) S.D.=  1.80149904412009E-05
DEBUG_STATS_RL:               Theta (DYNAMICS)  min= -1.41019615972461E+00
DEBUG_STATS_RL:               Theta (DYNAMICS)  max=  1.32440592110212E+01
DEBUG_STATS_RL:               Theta (DYNAMICS) mean=  2.49735783552472E+00
DEBUG_STATS_RL:               Theta (DYNAMICS) S.D.=  2.45807980529386E+00
DEBUG_STATS_RL:                Salt (DYNAMICS)  min=  2.76560994014067E+01
DEBUG_STATS_RL:                Salt (DYNAMICS)  max=  3.54507778736995E+01
DEBUG_STATS_RL:                Salt (DYNAMICS) mean=  3.39623217189240E+01
DEBUG_STATS_RL:                Salt (DYNAMICS) S.D.=  1.10108958710357E+00
DEBUG_STATS_RL:                  Gu (DYNAMICS)  min= -2.89112950168885E-02
DEBUG_STATS_RL:                  Gu (DYNAMICS)  max=  3.25741619058375E-02
DEBUG_STATS_RL:                  Gu (DYNAMICS) mean= -2.32520622241021E-03
DEBUG_STATS_RL:                  Gu (DYNAMICS) S.D.=  7.09155735784844E-03
DEBUG_STATS_RL:                  Gv (DYNAMICS)  min= -3.71241625510621E-02
DEBUG_STATS_RL:                  Gv (DYNAMICS)  max=  1.83230442031147E-02
DEBUG_STATS_RL:                  Gv (DYNAMICS) mean= -1.89259208721177E-03
DEBUG_STATS_RL:                  Gv (DYNAMICS) S.D.=  7.31046974976533E-03
DEBUG_STATS_RL:               GuNm1 (DYNAMICS)  min= -1.80289983389196E-07
DEBUG_STATS_RL:               GuNm1 (DYNAMICS)  max=  1.49251399870334E-07
DEBUG_STATS_RL:               GuNm1 (DYNAMICS) mean=  3.41794292088730E-09
DEBUG_STATS_RL:               GuNm1 (DYNAMICS) S.D.=  3.19693794884499E-08
DEBUG_STATS_RL:               GvNm1 (DYNAMICS)  min= -5.11118133734402E-08
DEBUG_STATS_RL:               GvNm1 (DYNAMICS)  max=  4.88281454922596E-08
DEBUG_STATS_RL:               GvNm1 (DYNAMICS) mean= -4.70245831256227E-11
DEBUG_STATS_RL:               GvNm1 (DYNAMICS) S.D.=  1.42003013108260E-08
DEBUG_STATS_RL:               GtNm1 (DYNAMICS)  min=  0.00000000000000E+00
DEBUG_STATS_RL:               GtNm1 (DYNAMICS)  max=  0.00000000000000E+00
DEBUG_STATS_RL:               GtNm1 (DYNAMICS) mean=  0.00000000000000E+00
DEBUG_STATS_RL:               GtNm1 (DYNAMICS) S.D.=  0.00000000000000E+00
DEBUG_STATS_RL:               GsNm1 (DYNAMICS)  min=  0.00000000000000E+00
DEBUG_STATS_RL:               GsNm1 (DYNAMICS)  max=  0.00000000000000E+00
DEBUG_STATS_RL:               GsNm1 (DYNAMICS) mean=  0.00000000000000E+00
DEBUG_STATS_RL:               GsNm1 (DYNAMICS) S.D.=  0.00000000000000E+00
DEBUG_STATS_RL:    cg2d_b (SOLVE_FOR_PRESSURE)  min= -7.40048897093643E+03
DEBUG_STATS_RL:    cg2d_b (SOLVE_FOR_PRESSURE)  max=  2.33428667016753E+03
DEBUG_STATS_RL:    cg2d_b (SOLVE_FOR_PRESSURE) mean=  6.87805368215777E-14
DEBUG_STATS_RL:    cg2d_b (SOLVE_FOR_PRESSURE) S.D.=  9.39768538610240E+02
 cg2d: Sum(rhs),rhsMax =   5.79397640976254E-16  1.19110424780756E+00
DEBUG_STATS_RL:    cg2d_x (SOLVE_FOR_PRESSURE)  min= -1.25977767814633E+00
DEBUG_STATS_RL:    cg2d_x (SOLVE_FOR_PRESSURE)  max=  2.83276936769480E+00
DEBUG_STATS_RL:    cg2d_x (SOLVE_FOR_PRESSURE) mean= -1.56118539431004E-02
DEBUG_STATS_RL:    cg2d_x (SOLVE_FOR_PRESSURE) S.D.=  6.63083405129615E-01
DEBUG_STATS_RL:          Uvel (THERMODYNAMICS)  min= -4.02432897586666E-02
DEBUG_STATS_RL:          Uvel (THERMODYNAMICS)  max=  3.23458159885818E-02
DEBUG_STATS_RL:          Uvel (THERMODYNAMICS) mean=  6.75465330211737E-04
DEBUG_STATS_RL:          Uvel (THERMODYNAMICS) S.D.=  7.33761384667308E-03
DEBUG_STATS_RL:          Vvel (THERMODYNAMICS)  min= -1.64862319058743E-02
DEBUG_STATS_RL:          Vvel (THERMODYNAMICS)  max=  4.21759382970961E-02
DEBUG_STATS_RL:          Vvel (THERMODYNAMICS) mean=  1.82858022907244E-03
DEBUG_STATS_RL:          Vvel (THERMODYNAMICS) S.D.=  8.08424055894135E-03
DEBUG_STATS_RL:          Wvel (THERMODYNAMICS)  min= -6.56490529174599E-05
DEBUG_STATS_RL:          Wvel (THERMODYNAMICS)  max=  1.68683217295653E-04
DEBUG_STATS_RL:          Wvel (THERMODYNAMICS) mean= -4.30739495113278E-07
DEBUG_STATS_RL:          Wvel (THERMODYNAMICS) S.D.=  1.89945067258079E-05
DEBUG_STATS_RL:         Theta (THERMODYNAMICS)  min= -1.83156742552816E+00
DEBUG_STATS_RL:         Theta (THERMODYNAMICS)  max=  1.32606612249659E+01
DEBUG_STATS_RL:         Theta (THERMODYNAMICS) mean=  2.43057765558689E+00
DEBUG_STATS_RL:         Theta (THERMODYNAMICS) S.D.=  2.55246643542934E+00
DEBUG_STATS_RL:          Salt (THERMODYNAMICS)  min=  2.76092906345221E+01
DEBUG_STATS_RL:          Salt (THERMODYNAMICS)  max=  3.54509236522671E+01
DEBUG_STATS_RL:          Salt (THERMODYNAMICS) mean=  3.39413044254441E+01
DEBUG_STATS_RL:          Salt (THERMODYNAMICS) S.D.=  1.14495872836424E+00
DEBUG_STATS_RL:         GtNm1 (THERMODYNAMICS)  min=  0.00000000000000E+00
DEBUG_STATS_RL:         GtNm1 (THERMODYNAMICS)  max=  0.00000000000000E+00
DEBUG_STATS_RL:         GtNm1 (THERMODYNAMICS) mean=  0.00000000000000E+00
DEBUG_STATS_RL:         GtNm1 (THERMODYNAMICS) S.D.=  0.00000000000000E+00
DEBUG_STATS_RL:         GsNm1 (THERMODYNAMICS)  min=  0.00000000000000E+00
DEBUG_STATS_RL:         GsNm1 (THERMODYNAMICS)  max=  0.00000000000000E+00
DEBUG_STATS_RL:         GsNm1 (THERMODYNAMICS) mean=  0.00000000000000E+00
DEBUG_STATS_RL:         GsNm1 (THERMODYNAMICS) S.D.=  0.00000000000000E+00
(PID.TID 0000.0001)  MDS_WRITE_FIELD: it,rec,kS,kL,kH=       1     3   1   1   1 file=m_sst_step.0000000001
(PID.TID 0000.0001)  MDS_READ_FIELD: opening global file: xx_atemp.effective.0000000001.data
(PID.TID 0000.0001) EXF_SET_FLD: processing field "climsss",  file: SSS_monthly.labsea1979
(PID.TID 0000.0001) EXF_SET_FLD:   myIter, count0, count1:         2      1      2
(PID.TID 0000.0001) EXF_SET_FLD:   first, changed, fac:   F   F    0.49726775956284153
(PID.TID 0000.0001) EXF_SET_FLD: processing field "uwind",  file: u10m.labsea1979
(PID.TID 0000.0001) EXF_SET_FLD:   myIter, count0, count1:         2      1      2
(PID.TID 0000.0001) EXF_SET_FLD:   first, changed, fac:   F   F    0.49726775956284153
(PID.TID 0000.0001) EXF_SET_FLD: processing field "vwind",  file: v10m.labsea1979
(PID.TID 0000.0001) EXF_SET_FLD:   myIter, count0, count1:         2      1      2
(PID.TID 0000.0001) EXF_SET_FLD:   first, changed, fac:   F   F    0.49726775956284153
(PID.TID 0000.0001) EXF_SET_FLD: processing field "atemp",  file: tair.labsea1979
(PID.TID 0000.0001) EXF_SET_FLD:   myIter, count0, count1:         2      1      2
(PID.TID 0000.0001) EXF_SET_FLD:   first, changed, fac:   F   F    0.49726775956284153
(PID.TID 0000.0001) EXF_SET_FLD: processing field "aqh",  file: qa.labsea1979
(PID.TID 0000.0001) EXF_SET_FLD:   myIter, count0, count1:         2      1      2
(PID.TID 0000.0001) EXF_SET_FLD:   first, changed, fac:   F   F    0.49726775956284153
(PID.TID 0000.0001) EXF_SET_FLD: processing field "precip",  file: prate.labsea1979
(PID.TID 0000.0001) EXF_SET_FLD:   myIter, count0, count1:         2      1      2
(PID.TID 0000.0001) EXF_SET_FLD:   first, changed, fac:   F   F    0.49726775956284153
(PID.TID 0000.0001) EXF_SET_FLD: processing field "swdown",  file: fsh.labsea1979
(PID.TID 0000.0001) EXF_SET_FLD:   myIter, count0, count1:         2      1      2
(PID.TID 0000.0001) EXF_SET_FLD:   first, changed, fac:   F   F    0.49726775956284153
(PID.TID 0000.0001) EXF_SET_FLD: processing field "lwdown",  file: flo.labsea1979
(PID.TID 0000.0001) EXF_SET_FLD:   myIter, count0, count1:         2      1      2
(PID.TID 0000.0001) EXF_SET_FLD:   first, changed, fac:   F   F    0.49726775956284153
DEBUG_STATS_RL: Uice pre  iter (SEAICE_LSR  1)  min= -2.72590911190182E-03
DEBUG_STATS_RL: Uice pre  iter (SEAICE_LSR  1)  max=  1.84821888363616E-01
DEBUG_STATS_RL: Uice pre  iter (SEAICE_LSR  1) mean=  4.43171854915938E-02
DEBUG_STATS_RL: Uice pre  iter (SEAICE_LSR  1) S.D.=  5.55969094951920E-02
DEBUG_STATS_RL: Vice pre  iter (SEAICE_LSR  1)  min= -3.16987209121493E-02
DEBUG_STATS_RL: Vice pre  iter (SEAICE_LSR  1)  max=  6.25866618672353E-02
DEBUG_STATS_RL: Vice pre  iter (SEAICE_LSR  1) mean= -5.92146683071473E-03
DEBUG_STATS_RL: Vice pre  iter (SEAICE_LSR  1) S.D.=  1.77615498819161E-02
DEBUG_STATS_RL: Uice pre  iter (SEAICE_LSR  2)  min= -3.50206878134422E-03
DEBUG_STATS_RL: Uice pre  iter (SEAICE_LSR  2)  max=  1.92025155896598E-01
DEBUG_STATS_RL: Uice pre  iter (SEAICE_LSR  2) mean=  5.29589963326829E-02
DEBUG_STATS_RL: Uice pre  iter (SEAICE_LSR  2) S.D.=  5.86189159299958E-02
DEBUG_STATS_RL: Vice pre  iter (SEAICE_LSR  2)  min= -6.12456112266518E-02
DEBUG_STATS_RL: Vice pre  iter (SEAICE_LSR  2)  max=  9.55317561460536E-02
DEBUG_STATS_RL: Vice pre  iter (SEAICE_LSR  2) mean= -1.11523016929452E-02
DEBUG_STATS_RL: Vice pre  iter (SEAICE_LSR  2) S.D.=  2.73762100031826E-02
DEBUG_STATS_RL:                EtaN (DYNAMICS)  min= -1.28344439274861E-01
DEBUG_STATS_RL:                EtaN (DYNAMICS)  max=  2.88598696737316E-01
DEBUG_STATS_RL:                EtaN (DYNAMICS) mean= -1.59051448134606E-03
DEBUG_STATS_RL:                EtaN (DYNAMICS) S.D.=  6.75540369544006E-02
DEBUG_STATS_RL:                Uvel (DYNAMICS)  min= -4.02432897586666E-02
DEBUG_STATS_RL:                Uvel (DYNAMICS)  max=  3.23458159885818E-02
DEBUG_STATS_RL:                Uvel (DYNAMICS) mean=  6.75465330211737E-04
DEBUG_STATS_RL:                Uvel (DYNAMICS) S.D.=  7.33761384667308E-03
DEBUG_STATS_RL:                Vvel (DYNAMICS)  min= -1.64862319058743E-02
DEBUG_STATS_RL:                Vvel (DYNAMICS)  max=  4.21759382970961E-02
DEBUG_STATS_RL:                Vvel (DYNAMICS) mean=  1.82858022907244E-03
DEBUG_STATS_RL:                Vvel (DYNAMICS) S.D.=  8.08424055894135E-03
DEBUG_STATS_RL:                Wvel (DYNAMICS)  min= -6.56490529174599E-05
DEBUG_STATS_RL:                Wvel (DYNAMICS)  max=  1.68683217295653E-04
DEBUG_STATS_RL:                Wvel (DYNAMICS) mean= -4.30739495113278E-07
DEBUG_STATS_RL:                Wvel (DYNAMICS) S.D.=  1.89945067258079E-05
DEBUG_STATS_RL:               Theta (DYNAMICS)  min= -1.83156742552816E+00
DEBUG_STATS_RL:               Theta (DYNAMICS)  max=  1.32606612249659E+01
DEBUG_STATS_RL:               Theta (DYNAMICS) mean=  2.43057765558689E+00
DEBUG_STATS_RL:               Theta (DYNAMICS) S.D.=  2.55246643542934E+00
DEBUG_STATS_RL:                Salt (DYNAMICS)  min=  2.76092906345221E+01
DEBUG_STATS_RL:                Salt (DYNAMICS)  max=  3.54509236522671E+01
DEBUG_STATS_RL:                Salt (DYNAMICS) mean=  3.39413044254441E+01
DEBUG_STATS_RL:                Salt (DYNAMICS) S.D.=  1.14495872836424E+00
DEBUG_STATS_RL:                  Gu (DYNAMICS)  min= -3.23510557472056E-02
DEBUG_STATS_RL:                  Gu (DYNAMICS)  max=  5.80377411255973E-02
DEBUG_STATS_RL:                  Gu (DYNAMICS) mean= -2.97572069517869E-04
DEBUG_STATS_RL:                  Gu (DYNAMICS) S.D.=  9.92934455350963E-03
DEBUG_STATS_RL:                  Gv (DYNAMICS)  min= -4.01882757136264E-02
DEBUG_STATS_RL:                  Gv (DYNAMICS)  max=  3.49568132071782E-02
DEBUG_STATS_RL:                  Gv (DYNAMICS) mean= -2.47632966120785E-03
DEBUG_STATS_RL:                  Gv (DYNAMICS) S.D.=  9.60357312381985E-03
DEBUG_STATS_RL:               GuNm1 (DYNAMICS)  min= -2.64915263690508E-07
DEBUG_STATS_RL:               GuNm1 (DYNAMICS)  max=  1.75889100747609E-07
DEBUG_STATS_RL:               GuNm1 (DYNAMICS) mean=  2.42191647084835E-09
DEBUG_STATS_RL:               GuNm1 (DYNAMICS) S.D.=  4.49076324943033E-08
DEBUG_STATS_RL:               GvNm1 (DYNAMICS)  min= -8.47298200118249E-08
DEBUG_STATS_RL:               GvNm1 (DYNAMICS)  max=  7.67749697778896E-08
DEBUG_STATS_RL:               GvNm1 (DYNAMICS) mean= -4.71533361262583E-10
DEBUG_STATS_RL:               GvNm1 (DYNAMICS) S.D.=  2.04113373444651E-08
DEBUG_STATS_RL:               GtNm1 (DYNAMICS)  min=  0.00000000000000E+00
DEBUG_STATS_RL:               GtNm1 (DYNAMICS)  max=  0.00000000000000E+00
DEBUG_STATS_RL:               GtNm1 (DYNAMICS) mean=  0.00000000000000E+00
DEBUG_STATS_RL:               GtNm1 (DYNAMICS) S.D.=  0.00000000000000E+00
DEBUG_STATS_RL:               GsNm1 (DYNAMICS)  min=  0.00000000000000E+00
DEBUG_STATS_RL:               GsNm1 (DYNAMICS)  max=  0.00000000000000E+00
DEBUG_STATS_RL:               GsNm1 (DYNAMICS) mean=  0.00000000000000E+00
DEBUG_STATS_RL:               GsNm1 (DYNAMICS) S.D.=  0.00000000000000E+00
DEBUG_STATS_RL:    cg2d_b (SOLVE_FOR_PRESSURE)  min= -7.51696131718235E+03
DEBUG_STATS_RL:    cg2d_b (SOLVE_FOR_PRESSURE)  max=  2.21291016221028E+03
DEBUG_STATS_RL:    cg2d_b (SOLVE_FOR_PRESSURE) mean=  3.89187941133666E-13
DEBUG_STATS_RL:    cg2d_b (SOLVE_FOR_PRESSURE) S.D.=  9.35355930257185E+02
 cg2d: Sum(rhs),rhsMax =   7.43849426498855E-15  1.20985040186717E+00
DEBUG_STATS_RL:    cg2d_x (SOLVE_FOR_PRESSURE)  min= -1.39137659518930E+00
DEBUG_STATS_RL:    cg2d_x (SOLVE_FOR_PRESSURE)  max=  3.06244143644422E+00
DEBUG_STATS_RL:    cg2d_x (SOLVE_FOR_PRESSURE) mean= -2.04738907200672E-02
DEBUG_STATS_RL:    cg2d_x (SOLVE_FOR_PRESSURE) S.D.=  7.54254787472758E-01
DEBUG_STATS_RL:          Uvel (THERMODYNAMICS)  min= -4.85747443135439E-02
DEBUG_STATS_RL:          Uvel (THERMODYNAMICS)  max=  6.48566534974149E-02
DEBUG_STATS_RL:          Uvel (THERMODYNAMICS) mean=  2.83347825460550E-03
DEBUG_STATS_RL:          Uvel (THERMODYNAMICS) S.D.=  1.04406948546647E-02
DEBUG_STATS_RL:          Vvel (THERMODYNAMICS)  min= -2.93630589496724E-02
DEBUG_STATS_RL:          Vvel (THERMODYNAMICS)  max=  5.51081422495752E-02
DEBUG_STATS_RL:          Vvel (THERMODYNAMICS) mean=  1.89398823345549E-03
DEBUG_STATS_RL:          Vvel (THERMODYNAMICS) S.D.=  1.13685531752914E-02
DEBUG_STATS_RL:          Wvel (THERMODYNAMICS)  min= -1.01835019199985E-04
DEBUG_STATS_RL:          Wvel (THERMODYNAMICS)  max=  2.18299385766800E-04
DEBUG_STATS_RL:          Wvel (THERMODYNAMICS) mean= -3.58449213339306E-07
DEBUG_STATS_RL:          Wvel (THERMODYNAMICS) S.D.=  2.04428902649856E-05
DEBUG_STATS_RL:         Theta (THERMODYNAMICS)  min= -1.93250363389783E+00
DEBUG_STATS_RL:         Theta (THERMODYNAMICS)  max=  1.32631363173882E+01
DEBUG_STATS_RL:         Theta (THERMODYNAMICS) mean=  2.41867029854828E+00
DEBUG_STATS_RL:         Theta (THERMODYNAMICS) S.D.=  2.57126546321788E+00
DEBUG_STATS_RL:          Salt (THERMODYNAMICS)  min=  2.76143299539290E+01
DEBUG_STATS_RL:          Salt (THERMODYNAMICS)  max=  3.54510577106203E+01
DEBUG_STATS_RL:          Salt (THERMODYNAMICS) mean=  3.39375783473312E+01
DEBUG_STATS_RL:          Salt (THERMODYNAMICS) S.D.=  1.15271478316016E+00
DEBUG_STATS_RL:         GtNm1 (THERMODYNAMICS)  min=  0.00000000000000E+00
DEBUG_STATS_RL:         GtNm1 (THERMODYNAMICS)  max=  0.00000000000000E+00
DEBUG_STATS_RL:         GtNm1 (THERMODYNAMICS) mean=  0.00000000000000E+00
DEBUG_STATS_RL:         GtNm1 (THERMODYNAMICS) S.D.=  0.00000000000000E+00
DEBUG_STATS_RL:         GsNm1 (THERMODYNAMICS)  min=  0.00000000000000E+00
DEBUG_STATS_RL:         GsNm1 (THERMODYNAMICS)  max=  0.00000000000000E+00
DEBUG_STATS_RL:         GsNm1 (THERMODYNAMICS) mean=  0.00000000000000E+00
DEBUG_STATS_RL:         GsNm1 (THERMODYNAMICS) S.D.=  0.00000000000000E+00
(PID.TID 0000.0001)  MDS_WRITE_FIELD: it,rec,kS,kL,kH=       1     4   1   1   1 file=m_sst_step.0000000001
(PID.TID 0000.0001)  MDS_READ_FIELD: opening global file: xx_atemp.effective.0000000001.data
(PID.TID 0000.0001) EXF_SET_FLD: processing field "climsss",  file: SSS_monthly.labsea1979
(PID.TID 0000.0001) EXF_SET_FLD:   myIter, count0, count1:         3      1      2
(PID.TID 0000.0001) EXF_SET_FLD:   first, changed, fac:   F   F    0.49590163934426235
(PID.TID 0000.0001) EXF_SET_FLD: processing field "uwind",  file: u10m.labsea1979
(PID.TID 0000.0001) EXF_SET_FLD:   myIter, count0, count1:         3      1      2
(PID.TID 0000.0001) EXF_SET_FLD:   first, changed, fac:   F   F    0.49590163934426235
(PID.TID 0000.0001) EXF_SET_FLD: processing field "vwind",  file: v10m.labsea1979
(PID.TID 0000.0001) EXF_SET_FLD:   myIter, count0, count1:         3      1      2
(PID.TID 0000.0001) EXF_SET_FLD:   first, changed, fac:   F   F    0.49590163934426235
(PID.TID 0000.0001) EXF_SET_FLD: processing field "atemp",  file: tair.labsea1979
(PID.TID 0000.0001) EXF_SET_FLD:   myIter, count0, count1:         3      1      2
(PID.TID 0000.0001) EXF_SET_FLD:   first, changed, fac:   F   F    0.49590163934426235
(PID.TID 0000.0001) EXF_SET_FLD: processing field "aqh",  file: qa.labsea1979
(PID.TID 0000.0001) EXF_SET_FLD:   myIter, count0, count1:         3      1      2
(PID.TID 0000.0001) EXF_SET_FLD:   first, changed, fac:   F   F    0.49590163934426235
(PID.TID 0000.0001) EXF_SET_FLD: processing field "precip",  file: prate.labsea1979
(PID.TID 0000.0001) EXF_SET_FLD:   myIter, count0, count1:         3      1      2
(PID.TID 0000.0001) EXF_SET_FLD:   first, changed, fac:   F   F    0.49590163934426235
(PID.TID 0000.0001) EXF_SET_FLD: processing field "swdown",  file: fsh.labsea1979
(PID.TID 0000.0001) EXF_SET_FLD:   myIter, count0, count1:         3      1      2
(PID.TID 0000.0001) EXF_SET_FLD:   first, changed, fac:   F   F    0.49590163934426235
(PID.TID 0000.0001) EXF_SET_FLD: processing field "lwdown",  file: flo.labsea1979
(PID.TID 0000.0001) EXF_SET_FLD:   myIter, count0, count1:         3      1      2
(PID.TID 0000.0001) EXF_SET_FLD:   first, changed, fac:   F   F    0.49590163934426235
DEBUG_STATS_RL: Uice pre  iter (SEAICE_LSR  1)  min= -4.89522325595578E-03
DEBUG_STATS_RL: Uice pre  iter (SEAICE_LSR  1)  max=  1.61355517756086E-01
DEBUG_STATS_RL: Uice pre  iter (SEAICE_LSR  1) mean=  5.67051326032777E-02
DEBUG_STATS_RL: Uice pre  iter (SEAICE_LSR  1) S.D.=  5.73816154995944E-02
DEBUG_STATS_RL: Vice pre  iter (SEAICE_LSR  1)  min= -1.51246540995874E-01
DEBUG_STATS_RL: Vice pre  iter (SEAICE_LSR  1)  max=  8.91076561218484E-02
DEBUG_STATS_RL: Vice pre  iter (SEAICE_LSR  1) mean= -1.97403473768107E-02
DEBUG_STATS_RL: Vice pre  iter (SEAICE_LSR  1) S.D.=  3.94189649065768E-02
DEBUG_STATS_RL: Uice pre  iter (SEAICE_LSR  2)  min= -5.42054480415375E-03
DEBUG_STATS_RL: Uice pre  iter (SEAICE_LSR  2)  max=  2.02641844081809E-01
DEBUG_STATS_RL: Uice pre  iter (SEAICE_LSR  2) mean=  6.47762112258311E-02
DEBUG_STATS_RL: Uice pre  iter (SEAICE_LSR  2) S.D.=  6.71608790533887E-02
DEBUG_STATS_RL: Vice pre  iter (SEAICE_LSR  2)  min= -1.45601126352222E-01
DEBUG_STATS_RL: Vice pre  iter (SEAICE_LSR  2)  max=  1.04145470460115E-01
DEBUG_STATS_RL: Vice pre  iter (SEAICE_LSR  2) mean= -2.31827417441429E-02
DEBUG_STATS_RL: Vice pre  iter (SEAICE_LSR  2) S.D.=  4.33109039409962E-02
DEBUG_STATS_RL:                EtaN (DYNAMICS)  min= -1.41751558253117E-01
DEBUG_STATS_RL:                EtaN (DYNAMICS)  max=  3.11997375243920E-01
DEBUG_STATS_RL:                EtaN (DYNAMICS) mean= -2.08585218632252E-03
DEBUG_STATS_RL:                EtaN (DYNAMICS) S.D.=  7.68424535915031E-02
DEBUG_STATS_RL:                Uvel (DYNAMICS)  min= -4.85747443135439E-02
DEBUG_STATS_RL:                Uvel (DYNAMICS)  max=  6.48566534974149E-02
DEBUG_STATS_RL:                Uvel (DYNAMICS) mean=  2.83347825460550E-03
DEBUG_STATS_RL:                Uvel (DYNAMICS) S.D.=  1.04406948546647E-02
DEBUG_STATS_RL:                Vvel (DYNAMICS)  min= -2.93630589496724E-02
DEBUG_STATS_RL:                Vvel (DYNAMICS)  max=  5.51081422495752E-02
DEBUG_STATS_RL:                Vvel (DYNAMICS) mean=  1.89398823345549E-03
DEBUG_STATS_RL:                Vvel (DYNAMICS) S.D.=  1.13685531752914E-02
DEBUG_STATS_RL:                Wvel (DYNAMICS)  min= -1.01835019199985E-04
DEBUG_STATS_RL:                Wvel (DYNAMICS)  max=  2.18299385766800E-04
DEBUG_STATS_RL:                Wvel (DYNAMICS) mean= -3.58449213339306E-07
DEBUG_STATS_RL:                Wvel (DYNAMICS) S.D.=  2.04428902649856E-05
DEBUG_STATS_RL:               Theta (DYNAMICS)  min= -1.93250363389783E+00
DEBUG_STATS_RL:               Theta (DYNAMICS)  max=  1.32631363173882E+01
DEBUG_STATS_RL:               Theta (DYNAMICS) mean=  2.41867029854828E+00
DEBUG_STATS_RL:               Theta (DYNAMICS) S.D.=  2.57126546321788E+00
DEBUG_STATS_RL:                Salt (DYNAMICS)  min=  2.76143299539290E+01
DEBUG_STATS_RL:                Salt (DYNAMICS)  max=  3.54510577106203E+01
DEBUG_STATS_RL:                Salt (DYNAMICS) mean=  3.39375783473312E+01
DEBUG_STATS_RL:                Salt (DYNAMICS) S.D.=  1.15271478316016E+00
DEBUG_STATS_RL:                  Gu (DYNAMICS)  min= -3.31660092548387E-02
DEBUG_STATS_RL:                  Gu (DYNAMICS)  max=  7.71641715782445E-02
DEBUG_STATS_RL:                  Gu (DYNAMICS) mean=  1.79729889204130E-03
DEBUG_STATS_RL:                  Gu (DYNAMICS) S.D.=  1.23549872720646E-02
DEBUG_STATS_RL:                  Gv (DYNAMICS)  min= -6.51102265932780E-02
DEBUG_STATS_RL:                  Gv (DYNAMICS)  max=  4.74792371894014E-02
DEBUG_STATS_RL:                  Gv (DYNAMICS) mean= -3.61268002204240E-03
DEBUG_STATS_RL:                  Gv (DYNAMICS) S.D.=  1.25565096773403E-02
DEBUG_STATS_RL:               GuNm1 (DYNAMICS)  min= -2.57489899416700E-07
DEBUG_STATS_RL:               GuNm1 (DYNAMICS)  max=  1.89368528479200E-07
DEBUG_STATS_RL:               GuNm1 (DYNAMICS) mean=  4.40117074200126E-12
DEBUG_STATS_RL:               GuNm1 (DYNAMICS) S.D.=  4.68821385830418E-08
DEBUG_STATS_RL:               GvNm1 (DYNAMICS)  min= -1.09603640235136E-07
DEBUG_STATS_RL:               GvNm1 (DYNAMICS)  max=  9.62789262154728E-08
DEBUG_STATS_RL:               GvNm1 (DYNAMICS) mean= -8.49526391147306E-10
DEBUG_STATS_RL:               GvNm1 (DYNAMICS) S.D.=  2.55629549792461E-08
DEBUG_STATS_RL:               GtNm1 (DYNAMICS)  min=  0.00000000000000E+00
DEBUG_STATS_RL:               GtNm1 (DYNAMICS)  max=  0.00000000000000E+00
DEBUG_STATS_RL:               GtNm1 (DYNAMICS) mean=  0.00000000000000E+00
DEBUG_STATS_RL:               GtNm1 (DYNAMICS) S.D.=  0.00000000000000E+00
DEBUG_STATS_RL:               GsNm1 (DYNAMICS)  min=  0.00000000000000E+00
DEBUG_STATS_RL:               GsNm1 (DYNAMICS)  max=  0.00000000000000E+00
DEBUG_STATS_RL:               GsNm1 (DYNAMICS) mean=  0.00000000000000E+00
DEBUG_STATS_RL:               GsNm1 (DYNAMICS) S.D.=  0.00000000000000E+00
DEBUG_STATS_RL:    cg2d_b (SOLVE_FOR_PRESSURE)  min= -7.48820843436686E+03
DEBUG_STATS_RL:    cg2d_b (SOLVE_FOR_PRESSURE)  max=  2.19603477106426E+03
DEBUG_STATS_RL:    cg2d_b (SOLVE_FOR_PRESSURE) mean=  3.56029280131528E-13
DEBUG_STATS_RL:    cg2d_b (SOLVE_FOR_PRESSURE) S.D.=  9.20730314173681E+02
 cg2d: Sum(rhs),rhsMax =   7.04991620636974E-15  1.20522264267548E+00
DEBUG_STATS_RL:    cg2d_x (SOLVE_FOR_PRESSURE)  min= -1.31033012419052E+00
DEBUG_STATS_RL:    cg2d_x (SOLVE_FOR_PRESSURE)  max=  3.14089981025021E+00
DEBUG_STATS_RL:    cg2d_x (SOLVE_FOR_PRESSURE) mean= -2.47876044023974E-02
DEBUG_STATS_RL:    cg2d_x (SOLVE_FOR_PRESSURE) S.D.=  7.62604990071780E-01
DEBUG_STATS_RL:          Uvel (THERMODYNAMICS)  min= -4.51228100181844E-02
DEBUG_STATS_RL:          Uvel (THERMODYNAMICS)  max=  8.23946614698024E-02
DEBUG_STATS_RL:          Uvel (THERMODYNAMICS) mean=  4.46006533352184E-03
DEBUG_STATS_RL:          Uvel (THERMODYNAMICS) S.D.=  1.25503402183581E-02
DEBUG_STATS_RL:          Vvel (THERMODYNAMICS)  min= -5.43131072024310E-02
DEBUG_STATS_RL:          Vvel (THERMODYNAMICS)  max=  6.64710959483291E-02
DEBUG_STATS_RL:          Vvel (THERMODYNAMICS) mean=  9.07394962408721E-04
DEBUG_STATS_RL:          Vvel (THERMODYNAMICS) S.D.=  1.42265213439193E-02
DEBUG_STATS_RL:          Wvel (THERMODYNAMICS)  min= -1.50094143875155E-04
DEBUG_STATS_RL:          Wvel (THERMODYNAMICS)  max=  2.67848367720723E-04
DEBUG_STATS_RL:          Wvel (THERMODYNAMICS) mean= -2.83768310639135E-07
DEBUG_STATS_RL:          Wvel (THERMODYNAMICS) S.D.=  2.30755404976208E-05
DEBUG_STATS_RL:         Theta (THERMODYNAMICS)  min= -1.95323356757650E+00
DEBUG_STATS_RL:         Theta (THERMODYNAMICS)  max=  1.32611729219858E+01
DEBUG_STATS_RL:         Theta (THERMODYNAMICS) mean=  2.41624287435038E+00
DEBUG_STATS_RL:         Theta (THERMODYNAMICS) S.D.=  2.57467251754838E+00
DEBUG_STATS_RL:          Salt (THERMODYNAMICS)  min=  2.76192995644599E+01
DEBUG_STATS_RL:          Salt (THERMODYNAMICS)  max=  3.54511687806856E+01
DEBUG_STATS_RL:          Salt (THERMODYNAMICS) mean=  3.39368869963870E+01
DEBUG_STATS_RL:          Salt (THERMODYNAMICS) S.D.=  1.15395653842059E+00
DEBUG_STATS_RL:         GtNm1 (THERMODYNAMICS)  min=  0.00000000000000E+00
DEBUG_STATS_RL:         GtNm1 (THERMODYNAMICS)  max=  0.00000000000000E+00
DEBUG_STATS_RL:         GtNm1 (THERMODYNAMICS) mean=  0.00000000000000E+00
DEBUG_STATS_RL:         GtNm1 (THERMODYNAMICS) S.D.=  0.00000000000000E+00
DEBUG_STATS_RL:         GsNm1 (THERMODYNAMICS)  min=  0.00000000000000E+00
DEBUG_STATS_RL:         GsNm1 (THERMODYNAMICS)  max=  0.00000000000000E+00
DEBUG_STATS_RL:         GsNm1 (THERMODYNAMICS) mean=  0.00000000000000E+00
DEBUG_STATS_RL:         GsNm1 (THERMODYNAMICS) S.D.=  0.00000000000000E+00
(PID.TID 0000.0001)  MDS_WRITE_FIELD: it,rec,kS,kL,kH=       1     5   1   1   1 file=m_sst_step.0000000001
(PID.TID 0000.0001)  MDS_READ_FIELD: opening global file: xx_atemp.effective.0000000001.data
(PID.TID 0000.0001) EXF_SET_FLD: processing field "climsss",  file: SSS_monthly.labsea1979
(PID.TID 0000.0001) EXF_SET_FLD:   myIter, count0, count1:         4      1      2
(PID.TID 0000.0001) EXF_SET_FLD:   first, changed, fac:   F   F    0.49453551912568305
(PID.TID 0000.0001) EXF_SET_FLD: processing field "uwind",  file: u10m.labsea1979
(PID.TID 0000.0001) EXF_SET_FLD:   myIter, count0, count1:         4      1      2
(PID.TID 0000.0001) EXF_SET_FLD:   first, changed, fac:   F   F    0.49453551912568305
(PID.TID 0000.0001) EXF_SET_FLD: processing field "vwind",  file: v10m.labsea1979
(PID.TID 0000.0001) EXF_SET_FLD:   myIter, count0, count1:         4      1      2
(PID.TID 0000.0001) EXF_SET_FLD:   first, changed, fac:   F   F    0.49453551912568305
(PID.TID 0000.0001) EXF_SET_FLD: processing field "atemp",  file: tair.labsea1979
(PID.TID 0000.0001) EXF_SET_FLD:   myIter, count0, count1:         4      1      2
(PID.TID 0000.0001) EXF_SET_FLD:   first, changed, fac:   F   F    0.49453551912568305
(PID.TID 0000.0001) EXF_SET_FLD: processing field "aqh",  file: qa.labsea1979
(PID.TID 0000.0001) EXF_SET_FLD:   myIter, count0, count1:         4      1      2
(PID.TID 0000.0001) EXF_SET_FLD:   first, changed, fac:   F   F    0.49453551912568305
(PID.TID 0000.0001) EXF_SET_FLD: processing field "precip",  file: prate.labsea1979
(PID.TID 0000.0001) EXF_SET_FLD:   myIter, count0, count1:         4      1      2
(PID.TID 0000.0001) EXF_SET_FLD:   first, changed, fac:   F   F    0.49453551912568305
(PID.TID 0000.0001) EXF_SET_FLD: processing field "swdown",  file: fsh.labsea1979
(PID.TID 0000.0001) EXF_SET_FLD:   myIter, count0, count1:         4      1      2
(PID.TID 0000.0001) EXF_SET_FLD:   first, changed, fac:   F   F    0.49453551912568305
(PID.TID 0000.0001) EXF_SET_FLD: processing field "lwdown",  file: flo.labsea1979
(PID.TID 0000.0001) EXF_SET_FLD:   myIter, count0, count1:         4      1      2
(PID.TID 0000.0001) EXF_SET_FLD:   first, changed, fac:   F   F    0.49453551912568305
DEBUG_STATS_RL: Uice pre  iter (SEAICE_LSR  1)  min= -6.64884179983331E-03
DEBUG_STATS_RL: Uice pre  iter (SEAICE_LSR  1)  max=  1.92542735136310E-01
DEBUG_STATS_RL: Uice pre  iter (SEAICE_LSR  1) mean=  6.47686246162847E-02
DEBUG_STATS_RL: Uice pre  iter (SEAICE_LSR  1) S.D.=  6.59732959909838E-02
DEBUG_STATS_RL: Vice pre  iter (SEAICE_LSR  1)  min= -1.58345599530543E-01
DEBUG_STATS_RL: Vice pre  iter (SEAICE_LSR  1)  max=  1.04255589228155E-01
DEBUG_STATS_RL: Vice pre  iter (SEAICE_LSR  1) mean= -2.61122078454593E-02
DEBUG_STATS_RL: Vice pre  iter (SEAICE_LSR  1) S.D.=  4.54292968520232E-02
DEBUG_STATS_RL: Uice pre  iter (SEAICE_LSR  2)  min= -7.39582706168482E-03
DEBUG_STATS_RL: Uice pre  iter (SEAICE_LSR  2)  max=  2.22032103672184E-01
DEBUG_STATS_RL: Uice pre  iter (SEAICE_LSR  2) mean=  6.99701895632881E-02
DEBUG_STATS_RL: Uice pre  iter (SEAICE_LSR  2) S.D.=  7.26089122439962E-02
DEBUG_STATS_RL: Vice pre  iter (SEAICE_LSR  2)  min= -1.71770480186513E-01
DEBUG_STATS_RL: Vice pre  iter (SEAICE_LSR  2)  max=  1.08496327276558E-01
DEBUG_STATS_RL: Vice pre  iter (SEAICE_LSR  2) mean= -3.10609864818367E-02
DEBUG_STATS_RL: Vice pre  iter (SEAICE_LSR  2) S.D.=  4.99863315299704E-02
DEBUG_STATS_RL:                EtaN (DYNAMICS)  min= -1.33494653835784E-01
DEBUG_STATS_RL:                EtaN (DYNAMICS)  max=  3.19990607833470E-01
DEBUG_STATS_RL:                EtaN (DYNAMICS) mean= -2.52532747895161E-03
DEBUG_STATS_RL:                EtaN (DYNAMICS) S.D.=  7.76931608940645E-02
DEBUG_STATS_RL:                Uvel (DYNAMICS)  min= -4.51228100181844E-02
DEBUG_STATS_RL:                Uvel (DYNAMICS)  max=  8.23946614698024E-02
DEBUG_STATS_RL:                Uvel (DYNAMICS) mean=  4.46006533352184E-03
DEBUG_STATS_RL:                Uvel (DYNAMICS) S.D.=  1.25503402183581E-02
DEBUG_STATS_RL:                Vvel (DYNAMICS)  min= -5.43131072024310E-02
DEBUG_STATS_RL:                Vvel (DYNAMICS)  max=  6.64710959483291E-02
DEBUG_STATS_RL:                Vvel (DYNAMICS) mean=  9.07394962408721E-04
DEBUG_STATS_RL:                Vvel (DYNAMICS) S.D.=  1.42265213439193E-02
DEBUG_STATS_RL:                Wvel (DYNAMICS)  min= -1.50094143875155E-04
DEBUG_STATS_RL:                Wvel (DYNAMICS)  max=  2.67848367720723E-04
DEBUG_STATS_RL:                Wvel (DYNAMICS) mean= -2.83768310639135E-07
DEBUG_STATS_RL:                Wvel (DYNAMICS) S.D.=  2.30755404976208E-05
DEBUG_STATS_RL:               Theta (DYNAMICS)  min= -1.95323356757650E+00
DEBUG_STATS_RL:               Theta (DYNAMICS)  max=  1.32611729219858E+01
DEBUG_STATS_RL:               Theta (DYNAMICS) mean=  2.41624287435038E+00
DEBUG_STATS_RL:               Theta (DYNAMICS) S.D.=  2.57467251754838E+00
DEBUG_STATS_RL:                Salt (DYNAMICS)  min=  2.76192995644599E+01
DEBUG_STATS_RL:                Salt (DYNAMICS)  max=  3.54511687806856E+01
DEBUG_STATS_RL:                Salt (DYNAMICS) mean=  3.39368869963870E+01
DEBUG_STATS_RL:                Salt (DYNAMICS) S.D.=  1.15395653842059E+00
DEBUG_STATS_RL:                  Gu (DYNAMICS)  min= -3.06969616936073E-02
DEBUG_STATS_RL:                  Gu (DYNAMICS)  max=  9.72073114926333E-02
DEBUG_STATS_RL:                  Gu (DYNAMICS) mean=  3.10151082318667E-03
DEBUG_STATS_RL:                  Gu (DYNAMICS) S.D.=  1.41052551008607E-02
DEBUG_STATS_RL:                  Gv (DYNAMICS)  min= -9.53132079804820E-02
DEBUG_STATS_RL:                  Gv (DYNAMICS)  max=  5.33682068181775E-02
DEBUG_STATS_RL:                  Gv (DYNAMICS) mean= -5.06243016752151E-03
DEBUG_STATS_RL:                  Gv (DYNAMICS) S.D.=  1.53588463678862E-02
DEBUG_STATS_RL:               GuNm1 (DYNAMICS)  min= -2.35357489189938E-07
DEBUG_STATS_RL:               GuNm1 (DYNAMICS)  max=  1.71456102315509E-07
DEBUG_STATS_RL:               GuNm1 (DYNAMICS) mean= -2.01481983922140E-09
DEBUG_STATS_RL:               GuNm1 (DYNAMICS) S.D.=  4.45062316312426E-08
DEBUG_STATS_RL:               GvNm1 (DYNAMICS)  min= -1.49109605789107E-07
DEBUG_STATS_RL:               GvNm1 (DYNAMICS)  max=  1.05797935490745E-07
DEBUG_STATS_RL:               GvNm1 (DYNAMICS) mean= -1.04937902583097E-09
DEBUG_STATS_RL:               GvNm1 (DYNAMICS) S.D.=  3.09410614928690E-08
DEBUG_STATS_RL:               GtNm1 (DYNAMICS)  min=  0.00000000000000E+00
DEBUG_STATS_RL:               GtNm1 (DYNAMICS)  max=  0.00000000000000E+00
DEBUG_STATS_RL:               GtNm1 (DYNAMICS) mean=  0.00000000000000E+00
DEBUG_STATS_RL:               GtNm1 (DYNAMICS) S.D.=  0.00000000000000E+00
DEBUG_STATS_RL:               GsNm1 (DYNAMICS)  min=  0.00000000000000E+00
DEBUG_STATS_RL:               GsNm1 (DYNAMICS)  max=  0.00000000000000E+00
DEBUG_STATS_RL:               GsNm1 (DYNAMICS) mean=  0.00000000000000E+00
DEBUG_STATS_RL:               GsNm1 (DYNAMICS) S.D.=  0.00000000000000E+00
DEBUG_STATS_RL:    cg2d_b (SOLVE_FOR_PRESSURE)  min= -7.47095948274222E+03
DEBUG_STATS_RL:    cg2d_b (SOLVE_FOR_PRESSURE)  max=  2.18029189648757E+03
DEBUG_STATS_RL:    cg2d_b (SOLVE_FOR_PRESSURE) mean=  5.58581329338874E-13
DEBUG_STATS_RL:    cg2d_b (SOLVE_FOR_PRESSURE) S.D.=  9.11464014140380E+02
 cg2d: Sum(rhs),rhsMax =   1.01377239936085E-14  1.20244643428830E+00
DEBUG_STATS_RL:    cg2d_x (SOLVE_FOR_PRESSURE)  min= -1.27317826454288E+00
DEBUG_STATS_RL:    cg2d_x (SOLVE_FOR_PRESSURE)  max=  3.19622316797821E+00
DEBUG_STATS_RL:    cg2d_x (SOLVE_FOR_PRESSURE) mean= -2.95294169357806E-02
DEBUG_STATS_RL:    cg2d_x (SOLVE_FOR_PRESSURE) S.D.=  7.40273720372741E-01
DEBUG_STATS_RL:          Uvel (THERMODYNAMICS)  min= -3.64296443204447E-02
DEBUG_STATS_RL:          Uvel (THERMODYNAMICS)  max=  8.91662112566485E-02
DEBUG_STATS_RL:          Uvel (THERMODYNAMICS) mean=  5.18186102505671E-03
DEBUG_STATS_RL:          Uvel (THERMODYNAMICS) S.D.=  1.36791834404146E-02
DEBUG_STATS_RL:          Vvel (THERMODYNAMICS)  min= -8.48427067731258E-02
DEBUG_STATS_RL:          Vvel (THERMODYNAMICS)  max=  7.15709637633439E-02
DEBUG_STATS_RL:          Vvel (THERMODYNAMICS) mean= -6.25663991244967E-04
DEBUG_STATS_RL:          Vvel (THERMODYNAMICS) S.D.=  1.65568599028951E-02
DEBUG_STATS_RL:          Wvel (THERMODYNAMICS)  min= -2.02998023749460E-04
DEBUG_STATS_RL:          Wvel (THERMODYNAMICS)  max=  3.07634744219640E-04
DEBUG_STATS_RL:          Wvel (THERMODYNAMICS) mean= -2.14485636605886E-07
DEBUG_STATS_RL:          Wvel (THERMODYNAMICS) S.D.=  2.56514188295241E-05
DEBUG_STATS_RL:         Theta (THERMODYNAMICS)  min= -1.95891909892376E+00
DEBUG_STATS_RL:         Theta (THERMODYNAMICS)  max=  1.32575107273067E+01
DEBUG_STATS_RL:         Theta (THERMODYNAMICS) mean=  2.41560973729717E+00
DEBUG_STATS_RL:         Theta (THERMODYNAMICS) S.D.=  2.57506629522921E+00
DEBUG_STATS_RL:          Salt (THERMODYNAMICS)  min=  2.76241835718781E+01
DEBUG_STATS_RL:          Salt (THERMODYNAMICS)  max=  3.54512322319690E+01
DEBUG_STATS_RL:          Salt (THERMODYNAMICS) mean=  3.39367610972835E+01
DEBUG_STATS_RL:          Salt (THERMODYNAMICS) S.D.=  1.15400523729610E+00
DEBUG_STATS_RL:         GtNm1 (THERMODYNAMICS)  min=  0.00000000000000E+00
DEBUG_STATS_RL:         GtNm1 (THERMODYNAMICS)  max=  0.00000000000000E+00
DEBUG_STATS_RL:         GtNm1 (THERMODYNAMICS) mean=  0.00000000000000E+00
DEBUG_STATS_RL:         GtNm1 (THERMODYNAMICS) S.D.=  0.00000000000000E+00
DEBUG_STATS_RL:         GsNm1 (THERMODYNAMICS)  min=  0.00000000000000E+00
DEBUG_STATS_RL:         GsNm1 (THERMODYNAMICS)  max=  0.00000000000000E+00
DEBUG_STATS_RL:         GsNm1 (THERMODYNAMICS) mean=  0.00000000000000E+00
DEBUG_STATS_RL:         GsNm1 (THERMODYNAMICS) S.D.=  0.00000000000000E+00
(PID.TID 0000.0001)  MDS_WRITE_FIELD: it,rec,kS,kL,kH=       1     6   1   1   1 file=m_sst_step.0000000001
(PID.TID 0000.0001)  MDS_READ_FIELD: opening global file: xx_atemp.effective.0000000001.data
(PID.TID 0000.0001) EXF_SET_FLD: processing field "climsss",  file: SSS_monthly.labsea1979
(PID.TID 0000.0001) EXF_SET_FLD:   myIter, count0, count1:         5      1      2
(PID.TID 0000.0001) EXF_SET_FLD:   first, changed, fac:   F   F    0.49316939890710387
(PID.TID 0000.0001) EXF_SET_FLD: processing field "uwind",  file: u10m.labsea1979
(PID.TID 0000.0001) EXF_SET_FLD:   myIter, count0, count1:         5      1      2
(PID.TID 0000.0001) EXF_SET_FLD:   first, changed, fac:   F   F    0.49316939890710387
(PID.TID 0000.0001) EXF_SET_FLD: processing field "vwind",  file: v10m.labsea1979
(PID.TID 0000.0001) EXF_SET_FLD:   myIter, count0, count1:         5      1      2
(PID.TID 0000.0001) EXF_SET_FLD:   first, changed, fac:   F   F    0.49316939890710387
(PID.TID 0000.0001) EXF_SET_FLD: processing field "atemp",  file: tair.labsea1979
(PID.TID 0000.0001) EXF_SET_FLD:   myIter, count0, count1:         5      1      2
(PID.TID 0000.0001) EXF_SET_FLD:   first, changed, fac:   F   F    0.49316939890710387
(PID.TID 0000.0001) EXF_SET_FLD: processing field "aqh",  file: qa.labsea1979
(PID.TID 0000.0001) EXF_SET_FLD:   myIter, count0, count1:         5      1      2
(PID.TID 0000.0001) EXF_SET_FLD:   first, changed, fac:   F   F    0.49316939890710387
(PID.TID 0000.0001) EXF_SET_FLD: processing field "precip",  file: prate.labsea1979
(PID.TID 0000.0001) EXF_SET_FLD:   myIter, count0, count1:         5      1      2
(PID.TID 0000.0001) EXF_SET_FLD:   first, changed, fac:   F   F    0.49316939890710387
(PID.TID 0000.0001) EXF_SET_FLD: processing field "swdown",  file: fsh.labsea1979
(PID.TID 0000.0001) EXF_SET_FLD:   myIter, count0, count1:         5      1      2
(PID.TID 0000.0001) EXF_SET_FLD:   first, changed, fac:   F   F    0.49316939890710387
(PID.TID 0000.0001) EXF_SET_FLD: processing field "lwdown",  file: flo.labsea1979
(PID.TID 0000.0001) EXF_SET_FLD:   myIter, count0, count1:         5      1      2
(PID.TID 0000.0001) EXF_SET_FLD:   first, changed, fac:   F   F    0.49316939890710387
DEBUG_STATS_RL: Uice pre  iter (SEAICE_LSR  1)  min= -9.02121933426838E-03
DEBUG_STATS_RL: Uice pre  iter (SEAICE_LSR  1)  max=  2.19445684647109E-01
DEBUG_STATS_RL: Uice pre  iter (SEAICE_LSR  1) mean=  6.96639305502218E-02
DEBUG_STATS_RL: Uice pre  iter (SEAICE_LSR  1) S.D.=  7.25590715279952E-02
DEBUG_STATS_RL: Vice pre  iter (SEAICE_LSR  1)  min= -1.73112057819555E-01
DEBUG_STATS_RL: Vice pre  iter (SEAICE_LSR  1)  max=  1.05174802576007E-01
DEBUG_STATS_RL: Vice pre  iter (SEAICE_LSR  1) mean= -3.44957645454963E-02
DEBUG_STATS_RL: Vice pre  iter (SEAICE_LSR  1) S.D.=  5.17027322840684E-02
DEBUG_STATS_RL: Uice pre  iter (SEAICE_LSR  2)  min= -9.93295031150799E-03
DEBUG_STATS_RL: Uice pre  iter (SEAICE_LSR  2)  max=  2.37649472779152E-01
DEBUG_STATS_RL: Uice pre  iter (SEAICE_LSR  2) mean=  7.08960993522881E-02
DEBUG_STATS_RL: Uice pre  iter (SEAICE_LSR  2) S.D.=  7.51814019583639E-02
DEBUG_STATS_RL: Vice pre  iter (SEAICE_LSR  2)  min= -1.73458139241621E-01
DEBUG_STATS_RL: Vice pre  iter (SEAICE_LSR  2)  max=  1.02503634704981E-01
DEBUG_STATS_RL: Vice pre  iter (SEAICE_LSR  2) mean= -3.89801386768482E-02
DEBUG_STATS_RL: Vice pre  iter (SEAICE_LSR  2) S.D.=  5.44920749393345E-02
DEBUG_STATS_RL:                EtaN (DYNAMICS)  min= -1.29709672821109E-01
DEBUG_STATS_RL:                EtaN (DYNAMICS)  max=  3.25626876398612E-01
DEBUG_STATS_RL:                EtaN (DYNAMICS) mean= -3.00841690123686E-03
DEBUG_STATS_RL:                EtaN (DYNAMICS) S.D.=  7.54180814593851E-02
DEBUG_STATS_RL:                Uvel (DYNAMICS)  min= -3.64296443204447E-02
DEBUG_STATS_RL:                Uvel (DYNAMICS)  max=  8.91662112566485E-02
DEBUG_STATS_RL:                Uvel (DYNAMICS) mean=  5.18186102505671E-03
DEBUG_STATS_RL:                Uvel (DYNAMICS) S.D.=  1.36791834404146E-02
DEBUG_STATS_RL:                Vvel (DYNAMICS)  min= -8.48427067731258E-02
DEBUG_STATS_RL:                Vvel (DYNAMICS)  max=  7.15709637633439E-02
DEBUG_STATS_RL:                Vvel (DYNAMICS) mean= -6.25663991244967E-04
DEBUG_STATS_RL:                Vvel (DYNAMICS) S.D.=  1.65568599028951E-02
DEBUG_STATS_RL:                Wvel (DYNAMICS)  min= -2.02998023749460E-04
DEBUG_STATS_RL:                Wvel (DYNAMICS)  max=  3.07634744219640E-04
DEBUG_STATS_RL:                Wvel (DYNAMICS) mean= -2.14485636605886E-07
DEBUG_STATS_RL:                Wvel (DYNAMICS) S.D.=  2.56514188295241E-05
DEBUG_STATS_RL:               Theta (DYNAMICS)  min= -1.95891909892376E+00
DEBUG_STATS_RL:               Theta (DYNAMICS)  max=  1.32575107273067E+01
DEBUG_STATS_RL:               Theta (DYNAMICS) mean=  2.41560973729717E+00
DEBUG_STATS_RL:               Theta (DYNAMICS) S.D.=  2.57506629522921E+00
DEBUG_STATS_RL:                Salt (DYNAMICS)  min=  2.76241835718781E+01
DEBUG_STATS_RL:                Salt (DYNAMICS)  max=  3.54512322319690E+01
DEBUG_STATS_RL:                Salt (DYNAMICS) mean=  3.39367610972835E+01
DEBUG_STATS_RL:                Salt (DYNAMICS) S.D.=  1.15400523729610E+00
DEBUG_STATS_RL:                  Gu (DYNAMICS)  min= -3.40661284871793E-02
DEBUG_STATS_RL:                  Gu (DYNAMICS)  max=  1.09592409505600E-01
DEBUG_STATS_RL:                  Gu (DYNAMICS) mean=  3.43340148232734E-03
DEBUG_STATS_RL:                  Gu (DYNAMICS) S.D.=  1.52106643070714E-02
DEBUG_STATS_RL:                  Gv (DYNAMICS)  min= -1.19743996000497E-01
DEBUG_STATS_RL:                  Gv (DYNAMICS)  max=  5.31755908727335E-02
DEBUG_STATS_RL:                  Gv (DYNAMICS) mean= -6.43607759843715E-03
DEBUG_STATS_RL:                  Gv (DYNAMICS) S.D.=  1.74595586592830E-02
DEBUG_STATS_RL:               GuNm1 (DYNAMICS)  min= -2.94347299884322E-07
DEBUG_STATS_RL:               GuNm1 (DYNAMICS)  max=  1.78770581560362E-07
DEBUG_STATS_RL:               GuNm1 (DYNAMICS) mean= -3.06311171945582E-09
DEBUG_STATS_RL:               GuNm1 (DYNAMICS) S.D.=  4.19614199163599E-08
DEBUG_STATS_RL:               GvNm1 (DYNAMICS)  min= -1.82273635415883E-07
DEBUG_STATS_RL:               GvNm1 (DYNAMICS)  max=  1.24273330980124E-07
DEBUG_STATS_RL:               GvNm1 (DYNAMICS) mean= -1.05360009951738E-09
DEBUG_STATS_RL:               GvNm1 (DYNAMICS) S.D.=  3.58773704866474E-08
DEBUG_STATS_RL:               GtNm1 (DYNAMICS)  min=  0.00000000000000E+00
DEBUG_STATS_RL:               GtNm1 (DYNAMICS)  max=  0.00000000000000E+00
DEBUG_STATS_RL:               GtNm1 (DYNAMICS) mean=  0.00000000000000E+00
DEBUG_STATS_RL:               GtNm1 (DYNAMICS) S.D.=  0.00000000000000E+00
DEBUG_STATS_RL:               GsNm1 (DYNAMICS)  min=  0.00000000000000E+00
DEBUG_STATS_RL:               GsNm1 (DYNAMICS)  max=  0.00000000000000E+00
DEBUG_STATS_RL:               GsNm1 (DYNAMICS) mean=  0.00000000000000E+00
DEBUG_STATS_RL:               GsNm1 (DYNAMICS) S.D.=  0.00000000000000E+00
DEBUG_STATS_RL:    cg2d_b (SOLVE_FOR_PRESSURE)  min= -7.45833771571495E+03
DEBUG_STATS_RL:    cg2d_b (SOLVE_FOR_PRESSURE)  max=  2.17494903027718E+03
DEBUG_STATS_RL:    cg2d_b (SOLVE_FOR_PRESSURE) mean=  5.68813144733819E-13
DEBUG_STATS_RL:    cg2d_b (SOLVE_FOR_PRESSURE) S.D.=  9.06377010650088E+02
 cg2d: Sum(rhs),rhsMax =   1.30208344106819E-14  1.20041496847840E+00
DEBUG_STATS_RL:    cg2d_x (SOLVE_FOR_PRESSURE)  min= -1.23196163368039E+00
DEBUG_STATS_RL:    cg2d_x (SOLVE_FOR_PRESSURE)  max=  3.23727429690002E+00
DEBUG_STATS_RL:    cg2d_x (SOLVE_FOR_PRESSURE) mean= -3.45194761149357E-02
DEBUG_STATS_RL:    cg2d_x (SOLVE_FOR_PRESSURE) S.D.=  7.10912240392539E-01
DEBUG_STATS_RL:          Uvel (THERMODYNAMICS)  min= -3.59096386964128E-02
DEBUG_STATS_RL:          Uvel (THERMODYNAMICS)  max=  1.01288605318195E-01
DEBUG_STATS_RL:          Uvel (THERMODYNAMICS) mean=  5.06442107691905E-03
DEBUG_STATS_RL:          Uvel (THERMODYNAMICS) S.D.=  1.40087544095646E-02
DEBUG_STATS_RL:          Vvel (THERMODYNAMICS)  min= -1.10756263988791E-01
DEBUG_STATS_RL:          Vvel (THERMODYNAMICS)  max=  7.07208418107744E-02
DEBUG_STATS_RL:          Vvel (THERMODYNAMICS) mean= -2.17557054827781E-03
DEBUG_STATS_RL:          Vvel (THERMODYNAMICS) S.D.=  1.80912833066038E-02
DEBUG_STATS_RL:          Wvel (THERMODYNAMICS)  min= -2.43811460414299E-04
DEBUG_STATS_RL:          Wvel (THERMODYNAMICS)  max=  3.28816353261806E-04
DEBUG_STATS_RL:          Wvel (THERMODYNAMICS) mean= -1.37923543343161E-07
DEBUG_STATS_RL:          Wvel (THERMODYNAMICS) S.D.=  2.75149300864471E-05
DEBUG_STATS_RL:         Theta (THERMODYNAMICS)  min= -1.96015217723737E+00
DEBUG_STATS_RL:         Theta (THERMODYNAMICS)  max=  1.32512671183370E+01
DEBUG_STATS_RL:         Theta (THERMODYNAMICS) mean=  2.41531606071968E+00
DEBUG_STATS_RL:         Theta (THERMODYNAMICS) S.D.=  2.57483151675911E+00
DEBUG_STATS_RL:          Salt (THERMODYNAMICS)  min=  2.76290307531745E+01
DEBUG_STATS_RL:          Salt (THERMODYNAMICS)  max=  3.54512307060718E+01
DEBUG_STATS_RL:          Salt (THERMODYNAMICS) mean=  3.39367446276245E+01
DEBUG_STATS_RL:          Salt (THERMODYNAMICS) S.D.=  1.15382313156640E+00
DEBUG_STATS_RL:         GtNm1 (THERMODYNAMICS)  min=  0.00000000000000E+00
DEBUG_STATS_RL:         GtNm1 (THERMODYNAMICS)  max=  0.00000000000000E+00
DEBUG_STATS_RL:         GtNm1 (THERMODYNAMICS) mean=  0.00000000000000E+00
DEBUG_STATS_RL:         GtNm1 (THERMODYNAMICS) S.D.=  0.00000000000000E+00
DEBUG_STATS_RL:         GsNm1 (THERMODYNAMICS)  min=  0.00000000000000E+00
DEBUG_STATS_RL:         GsNm1 (THERMODYNAMICS)  max=  0.00000000000000E+00
DEBUG_STATS_RL:         GsNm1 (THERMODYNAMICS) mean=  0.00000000000000E+00
DEBUG_STATS_RL:         GsNm1 (THERMODYNAMICS) S.D.=  0.00000000000000E+00
(PID.TID 0000.0001)  MDS_WRITE_FIELD: it,rec,kS,kL,kH=       1     7   1   1   1 file=m_sst_step.0000000001
(PID.TID 0000.0001)  MDS_READ_FIELD: opening global file: xx_atemp.effective.0000000001.data
(PID.TID 0000.0001) EXF_SET_FLD: processing field "climsss",  file: SSS_monthly.labsea1979
(PID.TID 0000.0001) EXF_SET_FLD:   myIter, count0, count1:         6      1      2
(PID.TID 0000.0001) EXF_SET_FLD:   first, changed, fac:   F   F    0.49180327868852458
(PID.TID 0000.0001) EXF_SET_FLD: processing field "uwind",  file: u10m.labsea1979
(PID.TID 0000.0001) EXF_SET_FLD:   myIter, count0, count1:         6      1      2
(PID.TID 0000.0001) EXF_SET_FLD:   first, changed, fac:   F   F    0.49180327868852458
(PID.TID 0000.0001) EXF_SET_FLD: processing field "vwind",  file: v10m.labsea1979
(PID.TID 0000.0001) EXF_SET_FLD:   myIter, count0, count1:         6      1      2
(PID.TID 0000.0001) EXF_SET_FLD:   first, changed, fac:   F   F    0.49180327868852458
(PID.TID 0000.0001) EXF_SET_FLD: processing field "atemp",  file: tair.labsea1979
(PID.TID 0000.0001) EXF_SET_FLD:   myIter, count0, count1:         6      1      2
(PID.TID 0000.0001) EXF_SET_FLD:   first, changed, fac:   F   F    0.49180327868852458
(PID.TID 0000.0001) EXF_SET_FLD: processing field "aqh",  file: qa.labsea1979
(PID.TID 0000.0001) EXF_SET_FLD:   myIter, count0, count1:         6      1      2
(PID.TID 0000.0001) EXF_SET_FLD:   first, changed, fac:   F   F    0.49180327868852458
(PID.TID 0000.0001) EXF_SET_FLD: processing field "precip",  file: prate.labsea1979
(PID.TID 0000.0001) EXF_SET_FLD:   myIter, count0, count1:         6      1      2
(PID.TID 0000.0001) EXF_SET_FLD:   first, changed, fac:   F   F    0.49180327868852458
(PID.TID 0000.0001) EXF_SET_FLD: processing field "swdown",  file: fsh.labsea1979
(PID.TID 0000.0001) EXF_SET_FLD:   myIter, count0, count1:         6      1      2
(PID.TID 0000.0001) EXF_SET_FLD:   first, changed, fac:   F   F    0.49180327868852458
(PID.TID 0000.0001) EXF_SET_FLD: processing field "lwdown",  file: flo.labsea1979
(PID.TID 0000.0001) EXF_SET_FLD:   myIter, count0, count1:         6      1      2
(PID.TID 0000.0001) EXF_SET_FLD:   first, changed, fac:   F   F    0.49180327868852458
DEBUG_STATS_RL: Uice pre  iter (SEAICE_LSR  1)  min= -1.19106759196454E-02
DEBUG_STATS_RL: Uice pre  iter (SEAICE_LSR  1)  max=  2.40859973799500E-01
DEBUG_STATS_RL: Uice pre  iter (SEAICE_LSR  1) mean=  7.02597534861123E-02
DEBUG_STATS_RL: Uice pre  iter (SEAICE_LSR  1) S.D.=  7.57773428259580E-02
DEBUG_STATS_RL: Vice pre  iter (SEAICE_LSR  1)  min= -1.74132342678202E-01
DEBUG_STATS_RL: Vice pre  iter (SEAICE_LSR  1)  max=  9.66358613081390E-02
DEBUG_STATS_RL: Vice pre  iter (SEAICE_LSR  1) mean= -4.28491368242276E-02
DEBUG_STATS_RL: Vice pre  iter (SEAICE_LSR  1) S.D.=  5.63763392289616E-02
DEBUG_STATS_RL: Uice pre  iter (SEAICE_LSR  2)  min= -1.30564509125577E-02
DEBUG_STATS_RL: Uice pre  iter (SEAICE_LSR  2)  max=  2.47901039964918E-01
DEBUG_STATS_RL: Uice pre  iter (SEAICE_LSR  2) mean=  6.80717062410785E-02
DEBUG_STATS_RL: Uice pre  iter (SEAICE_LSR  2) S.D.=  7.48548542542393E-02
DEBUG_STATS_RL: Vice pre  iter (SEAICE_LSR  2)  min= -1.68314830999123E-01
DEBUG_STATS_RL: Vice pre  iter (SEAICE_LSR  2)  max=  8.87290074915896E-02
DEBUG_STATS_RL: Vice pre  iter (SEAICE_LSR  2) mean= -4.61137817408974E-02
DEBUG_STATS_RL: Vice pre  iter (SEAICE_LSR  2) S.D.=  5.74118961794479E-02
DEBUG_STATS_RL:                EtaN (DYNAMICS)  min= -1.25510578434369E-01
DEBUG_STATS_RL:                EtaN (DYNAMICS)  max=  3.29809109672360E-01
DEBUG_STATS_RL:                EtaN (DYNAMICS) mean= -3.51679735471451E-03
DEBUG_STATS_RL:                EtaN (DYNAMICS) S.D.=  7.24267737471514E-02
DEBUG_STATS_RL:                Uvel (DYNAMICS)  min= -3.59096386964128E-02
DEBUG_STATS_RL:                Uvel (DYNAMICS)  max=  1.01288605318195E-01
DEBUG_STATS_RL:                Uvel (DYNAMICS) mean=  5.06442107691905E-03
DEBUG_STATS_RL:                Uvel (DYNAMICS) S.D.=  1.40087544095646E-02
DEBUG_STATS_RL:                Vvel (DYNAMICS)  min= -1.10756263988791E-01
DEBUG_STATS_RL:                Vvel (DYNAMICS)  max=  7.07208418107744E-02
DEBUG_STATS_RL:                Vvel (DYNAMICS) mean= -2.17557054827781E-03
DEBUG_STATS_RL:                Vvel (DYNAMICS) S.D.=  1.80912833066038E-02
DEBUG_STATS_RL:                Wvel (DYNAMICS)  min= -2.43811460414299E-04
DEBUG_STATS_RL:                Wvel (DYNAMICS)  max=  3.28816353261806E-04
DEBUG_STATS_RL:                Wvel (DYNAMICS) mean= -1.37923543343161E-07
DEBUG_STATS_RL:                Wvel (DYNAMICS) S.D.=  2.75149300864471E-05
DEBUG_STATS_RL:               Theta (DYNAMICS)  min= -1.96015217723737E+00
DEBUG_STATS_RL:               Theta (DYNAMICS)  max=  1.32512671183370E+01
DEBUG_STATS_RL:               Theta (DYNAMICS) mean=  2.41531606071968E+00
DEBUG_STATS_RL:               Theta (DYNAMICS) S.D.=  2.57483151675911E+00
DEBUG_STATS_RL:                Salt (DYNAMICS)  min=  2.76290307531745E+01
DEBUG_STATS_RL:                Salt (DYNAMICS)  max=  3.54512307060718E+01
DEBUG_STATS_RL:                Salt (DYNAMICS) mean=  3.39367446276245E+01
DEBUG_STATS_RL:                Salt (DYNAMICS) S.D.=  1.15382313156640E+00
DEBUG_STATS_RL:                  Gu (DYNAMICS)  min= -4.45840116881728E-02
DEBUG_STATS_RL:                  Gu (DYNAMICS)  max=  1.13252404039500E-01
DEBUG_STATS_RL:                  Gu (DYNAMICS) mean=  3.02808241162440E-03
DEBUG_STATS_RL:                  Gu (DYNAMICS) S.D.=  1.59063121238589E-02
DEBUG_STATS_RL:                  Gv (DYNAMICS)  min= -1.34630447324943E-01
DEBUG_STATS_RL:                  Gv (DYNAMICS)  max=  4.81174890382835E-02
DEBUG_STATS_RL:                  Gv (DYNAMICS) mean= -7.41639241986033E-03
DEBUG_STATS_RL:                  Gv (DYNAMICS) S.D.=  1.85638365104488E-02
DEBUG_STATS_RL:               GuNm1 (DYNAMICS)  min= -3.33271036892919E-07
DEBUG_STATS_RL:               GuNm1 (DYNAMICS)  max=  1.87479663955265E-07
DEBUG_STATS_RL:               GuNm1 (DYNAMICS) mean= -3.31200046770016E-09
DEBUG_STATS_RL:               GuNm1 (DYNAMICS) S.D.=  4.08419141882243E-08
DEBUG_STATS_RL:               GvNm1 (DYNAMICS)  min= -2.04912919624495E-07
DEBUG_STATS_RL:               GvNm1 (DYNAMICS)  max=  1.56710147054468E-07
DEBUG_STATS_RL:               GvNm1 (DYNAMICS) mean= -8.96938696729589E-10
DEBUG_STATS_RL:               GvNm1 (DYNAMICS) S.D.=  3.95873164869155E-08
DEBUG_STATS_RL:               GtNm1 (DYNAMICS)  min=  0.00000000000000E+00
DEBUG_STATS_RL:               GtNm1 (DYNAMICS)  max=  0.00000000000000E+00
DEBUG_STATS_RL:               GtNm1 (DYNAMICS) mean=  0.00000000000000E+00
DEBUG_STATS_RL:               GtNm1 (DYNAMICS) S.D.=  0.00000000000000E+00
DEBUG_STATS_RL:               GsNm1 (DYNAMICS)  min=  0.00000000000000E+00
DEBUG_STATS_RL:               GsNm1 (DYNAMICS)  max=  0.00000000000000E+00
DEBUG_STATS_RL:               GsNm1 (DYNAMICS) mean=  0.00000000000000E+00
DEBUG_STATS_RL:               GsNm1 (DYNAMICS) S.D.=  0.00000000000000E+00
DEBUG_STATS_RL:    cg2d_b (SOLVE_FOR_PRESSURE)  min= -7.43169656861285E+03
DEBUG_STATS_RL:    cg2d_b (SOLVE_FOR_PRESSURE)  max=  2.17598296942595E+03
DEBUG_STATS_RL:    cg2d_b (SOLVE_FOR_PRESSURE) mean=  7.30627410424252E-13
DEBUG_STATS_RL:    cg2d_b (SOLVE_FOR_PRESSURE) S.D.=  9.02750100849553E+02
 cg2d: Sum(rhs),rhsMax =   1.44259604262231E-14  1.19612709187938E+00
DEBUG_STATS_RL:    cg2d_x (SOLVE_FOR_PRESSURE)  min= -1.18794061890821E+00
DEBUG_STATS_RL:    cg2d_x (SOLVE_FOR_PRESSURE)  max=  3.24511049575885E+00
DEBUG_STATS_RL:    cg2d_x (SOLVE_FOR_PRESSURE) mean= -3.88654400026822E-02
DEBUG_STATS_RL:    cg2d_x (SOLVE_FOR_PRESSURE) S.D.=  6.81167535252330E-01
DEBUG_STATS_RL:          Uvel (THERMODYNAMICS)  min= -3.57601727927063E-02
DEBUG_STATS_RL:          Uvel (THERMODYNAMICS)  max=  1.04775938290593E-01
DEBUG_STATS_RL:          Uvel (THERMODYNAMICS) mean=  4.39725630125702E-03
DEBUG_STATS_RL:          Uvel (THERMODYNAMICS) S.D.=  1.39028540310229E-02
DEBUG_STATS_RL:          Vvel (THERMODYNAMICS)  min= -1.27584762387767E-01
DEBUG_STATS_RL:          Vvel (THERMODYNAMICS)  max=  6.50083276838835E-02
DEBUG_STATS_RL:          Vvel (THERMODYNAMICS) mean= -3.36887217581335E-03
DEBUG_STATS_RL:          Vvel (THERMODYNAMICS) S.D.=  1.85890275649937E-02
DEBUG_STATS_RL:          Wvel (THERMODYNAMICS)  min= -2.67954696014334E-04
DEBUG_STATS_RL:          Wvel (THERMODYNAMICS)  max=  3.29804232734310E-04
DEBUG_STATS_RL:          Wvel (THERMODYNAMICS) mean= -4.85616750765931E-08
DEBUG_STATS_RL:          Wvel (THERMODYNAMICS) S.D.=  2.84164537902802E-05
DEBUG_STATS_RL:         Theta (THERMODYNAMICS)  min= -1.95963016104374E+00
DEBUG_STATS_RL:         Theta (THERMODYNAMICS)  max=  1.32396343409663E+01
DEBUG_STATS_RL:         Theta (THERMODYNAMICS) mean=  2.41506584132490E+00
DEBUG_STATS_RL:         Theta (THERMODYNAMICS) S.D.=  2.57443936967395E+00
DEBUG_STATS_RL:          Salt (THERMODYNAMICS)  min=  2.76338867569799E+01
DEBUG_STATS_RL:          Salt (THERMODYNAMICS)  max=  3.54511617149686E+01
DEBUG_STATS_RL:          Salt (THERMODYNAMICS) mean=  3.39367496241634E+01
DEBUG_STATS_RL:          Salt (THERMODYNAMICS) S.D.=  1.15359229307473E+00
DEBUG_STATS_RL:         GtNm1 (THERMODYNAMICS)  min=  0.00000000000000E+00
DEBUG_STATS_RL:         GtNm1 (THERMODYNAMICS)  max=  0.00000000000000E+00
DEBUG_STATS_RL:         GtNm1 (THERMODYNAMICS) mean=  0.00000000000000E+00
DEBUG_STATS_RL:         GtNm1 (THERMODYNAMICS) S.D.=  0.00000000000000E+00
DEBUG_STATS_RL:         GsNm1 (THERMODYNAMICS)  min=  0.00000000000000E+00
DEBUG_STATS_RL:         GsNm1 (THERMODYNAMICS)  max=  0.00000000000000E+00
DEBUG_STATS_RL:         GsNm1 (THERMODYNAMICS) mean=  0.00000000000000E+00
DEBUG_STATS_RL:         GsNm1 (THERMODYNAMICS) S.D.=  0.00000000000000E+00
(PID.TID 0000.0001)  MDS_WRITE_FIELD: it,rec,kS,kL,kH=       1     8   1   1   1 file=m_sst_step.0000000001
(PID.TID 0000.0001)  MDS_READ_FIELD: opening global file: xx_atemp.effective.0000000001.data
(PID.TID 0000.0001) EXF_SET_FLD: processing field "climsss",  file: SSS_monthly.labsea1979
(PID.TID 0000.0001) EXF_SET_FLD:   myIter, count0, count1:         7      1      2
(PID.TID 0000.0001) EXF_SET_FLD:   first, changed, fac:   F   F    0.49043715846994540
(PID.TID 0000.0001) EXF_SET_FLD: processing field "uwind",  file: u10m.labsea1979
(PID.TID 0000.0001) EXF_SET_FLD:   myIter, count0, count1:         7      1      2
(PID.TID 0000.0001) EXF_SET_FLD:   first, changed, fac:   F   F    0.49043715846994540
(PID.TID 0000.0001) EXF_SET_FLD: processing field "vwind",  file: v10m.labsea1979
(PID.TID 0000.0001) EXF_SET_FLD:   myIter, count0, count1:         7      1      2
(PID.TID 0000.0001) EXF_SET_FLD:   first, changed, fac:   F   F    0.49043715846994540
(PID.TID 0000.0001) EXF_SET_FLD: processing field "atemp",  file: tair.labsea1979
(PID.TID 0000.0001) EXF_SET_FLD:   myIter, count0, count1:         7      1      2
(PID.TID 0000.0001) EXF_SET_FLD:   first, changed, fac:   F   F    0.49043715846994540
(PID.TID 0000.0001) EXF_SET_FLD: processing field "aqh",  file: qa.labsea1979
(PID.TID 0000.0001) EXF_SET_FLD:   myIter, count0, count1:         7      1      2
(PID.TID 0000.0001) EXF_SET_FLD:   first, changed, fac:   F   F    0.49043715846994540
(PID.TID 0000.0001) EXF_SET_FLD: processing field "precip",  file: prate.labsea1979
(PID.TID 0000.0001) EXF_SET_FLD:   myIter, count0, count1:         7      1      2
(PID.TID 0000.0001) EXF_SET_FLD:   first, changed, fac:   F   F    0.49043715846994540
(PID.TID 0000.0001) EXF_SET_FLD: processing field "swdown",  file: fsh.labsea1979
(PID.TID 0000.0001) EXF_SET_FLD:   myIter, count0, count1:         7      1      2
(PID.TID 0000.0001) EXF_SET_FLD:   first, changed, fac:   F   F    0.49043715846994540
(PID.TID 0000.0001) EXF_SET_FLD: processing field "lwdown",  file: flo.labsea1979
(PID.TID 0000.0001) EXF_SET_FLD:   myIter, count0, count1:         7      1      2
(PID.TID 0000.0001) EXF_SET_FLD:   first, changed, fac:   F   F    0.49043715846994540
DEBUG_STATS_RL: Uice pre  iter (SEAICE_LSR  1)  min= -1.54549194525669E-02
DEBUG_STATS_RL: Uice pre  iter (SEAICE_LSR  1)  max=  2.53524286292196E-01
DEBUG_STATS_RL: Uice pre  iter (SEAICE_LSR  1) mean=  6.68799365320680E-02
DEBUG_STATS_RL: Uice pre  iter (SEAICE_LSR  1) S.D.=  7.54478852962384E-02
DEBUG_STATS_RL: Vice pre  iter (SEAICE_LSR  1)  min= -1.68373183020573E-01
DEBUG_STATS_RL: Vice pre  iter (SEAICE_LSR  1)  max=  8.10859368452300E-02
DEBUG_STATS_RL: Vice pre  iter (SEAICE_LSR  1) mean= -4.94905385200279E-02
DEBUG_STATS_RL: Vice pre  iter (SEAICE_LSR  1) S.D.=  5.89447951201449E-02
DEBUG_STATS_RL: Uice pre  iter (SEAICE_LSR  2)  min= -1.68104910559559E-02
DEBUG_STATS_RL: Uice pre  iter (SEAICE_LSR  2)  max=  2.51381266335641E-01
DEBUG_STATS_RL: Uice pre  iter (SEAICE_LSR  2) mean=  6.26056742418037E-02
DEBUG_STATS_RL: Uice pre  iter (SEAICE_LSR  2) S.D.=  7.23215228186253E-02
DEBUG_STATS_RL: Vice pre  iter (SEAICE_LSR  2)  min= -1.70146515866639E-01
DEBUG_STATS_RL: Vice pre  iter (SEAICE_LSR  2)  max=  7.01571636850258E-02
DEBUG_STATS_RL: Vice pre  iter (SEAICE_LSR  2) mean= -5.12009841743316E-02
DEBUG_STATS_RL: Vice pre  iter (SEAICE_LSR  2) S.D.=  5.84735965010523E-02
DEBUG_STATS_RL:                EtaN (DYNAMICS)  min= -1.21025777222809E-01
DEBUG_STATS_RL:                EtaN (DYNAMICS)  max=  3.30607450971805E-01
DEBUG_STATS_RL:                EtaN (DYNAMICS) mean= -3.95955825448086E-03
DEBUG_STATS_RL:                EtaN (DYNAMICS) S.D.=  6.93964235759739E-02
DEBUG_STATS_RL:                Uvel (DYNAMICS)  min= -3.57601727927063E-02
DEBUG_STATS_RL:                Uvel (DYNAMICS)  max=  1.04775938290593E-01
DEBUG_STATS_RL:                Uvel (DYNAMICS) mean=  4.39725630125702E-03
DEBUG_STATS_RL:                Uvel (DYNAMICS) S.D.=  1.39028540310229E-02
DEBUG_STATS_RL:                Vvel (DYNAMICS)  min= -1.27584762387767E-01
DEBUG_STATS_RL:                Vvel (DYNAMICS)  max=  6.50083276838835E-02
DEBUG_STATS_RL:                Vvel (DYNAMICS) mean= -3.36887217581335E-03
DEBUG_STATS_RL:                Vvel (DYNAMICS) S.D.=  1.85890275649937E-02
DEBUG_STATS_RL:                Wvel (DYNAMICS)  min= -2.67954696014334E-04
DEBUG_STATS_RL:                Wvel (DYNAMICS)  max=  3.29804232734310E-04
DEBUG_STATS_RL:                Wvel (DYNAMICS) mean= -4.85616750765931E-08
DEBUG_STATS_RL:                Wvel (DYNAMICS) S.D.=  2.84164537902802E-05
DEBUG_STATS_RL:               Theta (DYNAMICS)  min= -1.95963016104374E+00
DEBUG_STATS_RL:               Theta (DYNAMICS)  max=  1.32396343409663E+01
DEBUG_STATS_RL:               Theta (DYNAMICS) mean=  2.41506584132490E+00
DEBUG_STATS_RL:               Theta (DYNAMICS) S.D.=  2.57443936967395E+00
DEBUG_STATS_RL:                Salt (DYNAMICS)  min=  2.76338867569799E+01
DEBUG_STATS_RL:                Salt (DYNAMICS)  max=  3.54511617149686E+01
DEBUG_STATS_RL:                Salt (DYNAMICS) mean=  3.39367496241634E+01
DEBUG_STATS_RL:                Salt (DYNAMICS) S.D.=  1.15359229307473E+00
DEBUG_STATS_RL:                  Gu (DYNAMICS)  min= -5.18639383653738E-02
DEBUG_STATS_RL:                  Gu (DYNAMICS)  max=  1.08500044377569E-01
DEBUG_STATS_RL:                  Gu (DYNAMICS) mean=  2.22152146946661E-03
DEBUG_STATS_RL:                  Gu (DYNAMICS) S.D.=  1.62488741544866E-02
DEBUG_STATS_RL:                  Gv (DYNAMICS)  min= -1.40216393355476E-01
DEBUG_STATS_RL:                  Gv (DYNAMICS)  max=  4.07135165171859E-02
DEBUG_STATS_RL:                  Gv (DYNAMICS) mean= -7.84361289824862E-03
DEBUG_STATS_RL:                  Gv (DYNAMICS) S.D.=  1.86090017356196E-02
DEBUG_STATS_RL:               GuNm1 (DYNAMICS)  min= -3.48473911940049E-07
DEBUG_STATS_RL:               GuNm1 (DYNAMICS)  max=  1.90416017948024E-07
DEBUG_STATS_RL:               GuNm1 (DYNAMICS) mean= -3.12306477013967E-09
DEBUG_STATS_RL:               GuNm1 (DYNAMICS) S.D.=  4.09417632400162E-08
DEBUG_STATS_RL:               GvNm1 (DYNAMICS)  min= -2.15359173477233E-07
DEBUG_STATS_RL:               GvNm1 (DYNAMICS)  max=  1.82438063100010E-07
DEBUG_STATS_RL:               GvNm1 (DYNAMICS) mean= -6.53519601920489E-10
DEBUG_STATS_RL:               GvNm1 (DYNAMICS) S.D.=  4.16452354554832E-08
DEBUG_STATS_RL:               GtNm1 (DYNAMICS)  min=  0.00000000000000E+00
DEBUG_STATS_RL:               GtNm1 (DYNAMICS)  max=  0.00000000000000E+00
DEBUG_STATS_RL:               GtNm1 (DYNAMICS) mean=  0.00000000000000E+00
DEBUG_STATS_RL:               GtNm1 (DYNAMICS) S.D.=  0.00000000000000E+00
DEBUG_STATS_RL:               GsNm1 (DYNAMICS)  min=  0.00000000000000E+00
DEBUG_STATS_RL:               GsNm1 (DYNAMICS)  max=  0.00000000000000E+00
DEBUG_STATS_RL:               GsNm1 (DYNAMICS) mean=  0.00000000000000E+00
DEBUG_STATS_RL:               GsNm1 (DYNAMICS) S.D.=  0.00000000000000E+00
DEBUG_STATS_RL:    cg2d_b (SOLVE_FOR_PRESSURE)  min= -7.37985604508160E+03
DEBUG_STATS_RL:    cg2d_b (SOLVE_FOR_PRESSURE)  max=  2.18366607280388E+03
DEBUG_STATS_RL:    cg2d_b (SOLVE_FOR_PRESSURE) mean=  7.19448204714960E-13
DEBUG_STATS_RL:    cg2d_b (SOLVE_FOR_PRESSURE) S.D.=  8.98963545839369E+02
 cg2d: Sum(rhs),rhsMax =   1.52343415660283E-14  1.18778339080380E+00
DEBUG_STATS_RL:    cg2d_x (SOLVE_FOR_PRESSURE)  min= -1.13929441834564E+00
DEBUG_STATS_RL:    cg2d_x (SOLVE_FOR_PRESSURE)  max=  3.20616731162402E+00
DEBUG_STATS_RL:    cg2d_x (SOLVE_FOR_PRESSURE) mean= -4.15672442272213E-02
DEBUG_STATS_RL:    cg2d_x (SOLVE_FOR_PRESSURE) S.D.=  6.51074617232255E-01
DEBUG_STATS_RL:          Uvel (THERMODYNAMICS)  min= -4.34802359606586E-02
DEBUG_STATS_RL:          Uvel (THERMODYNAMICS)  max=  9.99752242998816E-02
DEBUG_STATS_RL:          Uvel (THERMODYNAMICS) mean=  3.48264152590505E-03
DEBUG_STATS_RL:          Uvel (THERMODYNAMICS) S.D.=  1.35343125505903E-02
DEBUG_STATS_RL:          Vvel (THERMODYNAMICS)  min= -1.33439207289278E-01
DEBUG_STATS_RL:          Vvel (THERMODYNAMICS)  max=  5.60260700766952E-02
DEBUG_STATS_RL:          Vvel (THERMODYNAMICS) mean= -4.02696574872390E-03
DEBUG_STATS_RL:          Vvel (THERMODYNAMICS) S.D.=  1.80273334212657E-02
DEBUG_STATS_RL:          Wvel (THERMODYNAMICS)  min= -2.73348162229357E-04
DEBUG_STATS_RL:          Wvel (THERMODYNAMICS)  max=  3.13596923283681E-04
DEBUG_STATS_RL:          Wvel (THERMODYNAMICS) mean=  4.73709411318110E-08
DEBUG_STATS_RL:          Wvel (THERMODYNAMICS) S.D.=  2.82661454219203E-05
DEBUG_STATS_RL:         Theta (THERMODYNAMICS)  min= -1.95943609422387E+00
DEBUG_STATS_RL:         Theta (THERMODYNAMICS)  max=  1.32225113409296E+01
DEBUG_STATS_RL:         Theta (THERMODYNAMICS) mean=  2.41480286619418E+00
DEBUG_STATS_RL:         Theta (THERMODYNAMICS) S.D.=  2.57398860030337E+00
DEBUG_STATS_RL:          Salt (THERMODYNAMICS)  min=  2.76387468555707E+01
DEBUG_STATS_RL:          Salt (THERMODYNAMICS)  max=  3.54510358217953E+01
DEBUG_STATS_RL:          Salt (THERMODYNAMICS) mean=  3.39367601804954E+01
DEBUG_STATS_RL:          Salt (THERMODYNAMICS) S.D.=  1.15334890349564E+00
DEBUG_STATS_RL:         GtNm1 (THERMODYNAMICS)  min=  0.00000000000000E+00
DEBUG_STATS_RL:         GtNm1 (THERMODYNAMICS)  max=  0.00000000000000E+00
DEBUG_STATS_RL:         GtNm1 (THERMODYNAMICS) mean=  0.00000000000000E+00
DEBUG_STATS_RL:         GtNm1 (THERMODYNAMICS) S.D.=  0.00000000000000E+00
DEBUG_STATS_RL:         GsNm1 (THERMODYNAMICS)  min=  0.00000000000000E+00
DEBUG_STATS_RL:         GsNm1 (THERMODYNAMICS)  max=  0.00000000000000E+00
DEBUG_STATS_RL:         GsNm1 (THERMODYNAMICS) mean=  0.00000000000000E+00
DEBUG_STATS_RL:         GsNm1 (THERMODYNAMICS) S.D.=  0.00000000000000E+00
(PID.TID 0000.0001)  MDS_WRITE_FIELD: it,rec,kS,kL,kH=       1     9   1   1   1 file=m_sst_step.0000000001
(PID.TID 0000.0001)  MDS_READ_FIELD: opening global file: xx_atemp.effective.0000000001.data
(PID.TID 0000.0001) EXF_SET_FLD: processing field "climsss",  file: SSS_monthly.labsea1979
(PID.TID 0000.0001) EXF_SET_FLD:   myIter, count0, count1:         8      1      2
(PID.TID 0000.0001) EXF_SET_FLD:   first, changed, fac:   F   F    0.48907103825136611
(PID.TID 0000.0001) EXF_SET_FLD: processing field "uwind",  file: u10m.labsea1979
(PID.TID 0000.0001) EXF_SET_FLD:   myIter, count0, count1:         8      1      2
(PID.TID 0000.0001) EXF_SET_FLD:   first, changed, fac:   F   F    0.48907103825136611
(PID.TID 0000.0001) EXF_SET_FLD: processing field "vwind",  file: v10m.labsea1979
(PID.TID 0000.0001) EXF_SET_FLD:   myIter, count0, count1:         8      1      2
(PID.TID 0000.0001) EXF_SET_FLD:   first, changed, fac:   F   F    0.48907103825136611
(PID.TID 0000.0001) EXF_SET_FLD: processing field "atemp",  file: tair.labsea1979
(PID.TID 0000.0001) EXF_SET_FLD:   myIter, count0, count1:         8      1      2
(PID.TID 0000.0001) EXF_SET_FLD:   first, changed, fac:   F   F    0.48907103825136611
(PID.TID 0000.0001) EXF_SET_FLD: processing field "aqh",  file: qa.labsea1979
(PID.TID 0000.0001) EXF_SET_FLD:   myIter, count0, count1:         8      1      2
(PID.TID 0000.0001) EXF_SET_FLD:   first, changed, fac:   F   F    0.48907103825136611
(PID.TID 0000.0001) EXF_SET_FLD: processing field "precip",  file: prate.labsea1979
(PID.TID 0000.0001) EXF_SET_FLD:   myIter, count0, count1:         8      1      2
(PID.TID 0000.0001) EXF_SET_FLD:   first, changed, fac:   F   F    0.48907103825136611
(PID.TID 0000.0001) EXF_SET_FLD: processing field "swdown",  file: fsh.labsea1979
(PID.TID 0000.0001) EXF_SET_FLD:   myIter, count0, count1:         8      1      2
(PID.TID 0000.0001) EXF_SET_FLD:   first, changed, fac:   F   F    0.48907103825136611
(PID.TID 0000.0001) EXF_SET_FLD: processing field "lwdown",  file: flo.labsea1979
(PID.TID 0000.0001) EXF_SET_FLD:   myIter, count0, count1:         8      1      2
(PID.TID 0000.0001) EXF_SET_FLD:   first, changed, fac:   F   F    0.48907103825136611
DEBUG_STATS_RL: Uice pre  iter (SEAICE_LSR  1)  min= -1.95687208099880E-02
DEBUG_STATS_RL: Uice pre  iter (SEAICE_LSR  1)  max=  2.56695252608155E-01
DEBUG_STATS_RL: Uice pre  iter (SEAICE_LSR  1) mean=  6.10102626009744E-02
DEBUG_STATS_RL: Uice pre  iter (SEAICE_LSR  1) S.D.=  7.26515133442595E-02
DEBUG_STATS_RL: Vice pre  iter (SEAICE_LSR  1)  min= -1.74351841639367E-01
DEBUG_STATS_RL: Vice pre  iter (SEAICE_LSR  1)  max=  6.17815719868622E-02
DEBUG_STATS_RL: Vice pre  iter (SEAICE_LSR  1) mean= -5.34332922102507E-02
DEBUG_STATS_RL: Vice pre  iter (SEAICE_LSR  1) S.D.=  5.91879685809464E-02
DEBUG_STATS_RL: Uice pre  iter (SEAICE_LSR  2)  min= -2.10631196462905E-02
DEBUG_STATS_RL: Uice pre  iter (SEAICE_LSR  2)  max=  2.47741110498679E-01
DEBUG_STATS_RL: Uice pre  iter (SEAICE_LSR  2) mean=  5.58563099526875E-02
DEBUG_STATS_RL: Uice pre  iter (SEAICE_LSR  2) S.D.=  6.83562873806385E-02
DEBUG_STATS_RL: Vice pre  iter (SEAICE_LSR  2)  min= -1.71270231908800E-01
DEBUG_STATS_RL: Vice pre  iter (SEAICE_LSR  2)  max=  5.00408736690830E-02
DEBUG_STATS_RL: Vice pre  iter (SEAICE_LSR  2) mean= -5.35471708937328E-02
DEBUG_STATS_RL: Vice pre  iter (SEAICE_LSR  2) S.D.=  5.75117440523659E-02
DEBUG_STATS_RL:                EtaN (DYNAMICS)  min= -1.16069768363181E-01
DEBUG_STATS_RL:                EtaN (DYNAMICS)  max=  3.26639972250705E-01
DEBUG_STATS_RL:                EtaN (DYNAMICS) mean= -4.23481440026297E-03
DEBUG_STATS_RL:                EtaN (DYNAMICS) S.D.=  6.63305979494126E-02
DEBUG_STATS_RL:                Uvel (DYNAMICS)  min= -4.34802359606586E-02
DEBUG_STATS_RL:                Uvel (DYNAMICS)  max=  9.99752242998816E-02
DEBUG_STATS_RL:                Uvel (DYNAMICS) mean=  3.48264152590505E-03
DEBUG_STATS_RL:                Uvel (DYNAMICS) S.D.=  1.35343125505903E-02
DEBUG_STATS_RL:                Vvel (DYNAMICS)  min= -1.33439207289278E-01
DEBUG_STATS_RL:                Vvel (DYNAMICS)  max=  5.60260700766952E-02
DEBUG_STATS_RL:                Vvel (DYNAMICS) mean= -4.02696574872390E-03
DEBUG_STATS_RL:                Vvel (DYNAMICS) S.D.=  1.80273334212657E-02
DEBUG_STATS_RL:                Wvel (DYNAMICS)  min= -2.73348162229357E-04
DEBUG_STATS_RL:                Wvel (DYNAMICS)  max=  3.13596923283681E-04
DEBUG_STATS_RL:                Wvel (DYNAMICS) mean=  4.73709411318110E-08
DEBUG_STATS_RL:                Wvel (DYNAMICS) S.D.=  2.82661454219203E-05
DEBUG_STATS_RL:               Theta (DYNAMICS)  min= -1.95943609422387E+00
DEBUG_STATS_RL:               Theta (DYNAMICS)  max=  1.32225113409296E+01
DEBUG_STATS_RL:               Theta (DYNAMICS) mean=  2.41480286619418E+00
DEBUG_STATS_RL:               Theta (DYNAMICS) S.D.=  2.57398860030337E+00
DEBUG_STATS_RL:                Salt (DYNAMICS)  min=  2.76387468555707E+01
DEBUG_STATS_RL:                Salt (DYNAMICS)  max=  3.54510358217953E+01
DEBUG_STATS_RL:                Salt (DYNAMICS) mean=  3.39367601804954E+01
DEBUG_STATS_RL:                Salt (DYNAMICS) S.D.=  1.15334890349564E+00
DEBUG_STATS_RL:                  Gu (DYNAMICS)  min= -5.98368153049271E-02
DEBUG_STATS_RL:                  Gu (DYNAMICS)  max=  9.68873121299262E-02
DEBUG_STATS_RL:                  Gu (DYNAMICS) mean=  1.30194972948749E-03
DEBUG_STATS_RL:                  Gu (DYNAMICS) S.D.=  1.61566615234883E-02
DEBUG_STATS_RL:                  Gv (DYNAMICS)  min= -1.36271217268009E-01
DEBUG_STATS_RL:                  Gv (DYNAMICS)  max=  3.83573237348764E-02
DEBUG_STATS_RL:                  Gv (DYNAMICS) mean= -7.71950831957683E-03
DEBUG_STATS_RL:                  Gv (DYNAMICS) S.D.=  1.77533563667886E-02
DEBUG_STATS_RL:               GuNm1 (DYNAMICS)  min= -3.40955168137051E-07
DEBUG_STATS_RL:               GuNm1 (DYNAMICS)  max=  1.82641400821292E-07
DEBUG_STATS_RL:               GuNm1 (DYNAMICS) mean= -2.79196714442391E-09
DEBUG_STATS_RL:               GuNm1 (DYNAMICS) S.D.=  4.07453533304027E-08
DEBUG_STATS_RL:               GvNm1 (DYNAMICS)  min= -2.14559263714296E-07
DEBUG_STATS_RL:               GvNm1 (DYNAMICS)  max=  1.94148824775140E-07
DEBUG_STATS_RL:               GvNm1 (DYNAMICS) mean= -4.04169206801173E-10
DEBUG_STATS_RL:               GvNm1 (DYNAMICS) S.D.=  4.19222729578490E-08
DEBUG_STATS_RL:               GtNm1 (DYNAMICS)  min=  0.00000000000000E+00
DEBUG_STATS_RL:               GtNm1 (DYNAMICS)  max=  0.00000000000000E+00
DEBUG_STATS_RL:               GtNm1 (DYNAMICS) mean=  0.00000000000000E+00
DEBUG_STATS_RL:               GtNm1 (DYNAMICS) S.D.=  0.00000000000000E+00
DEBUG_STATS_RL:               GsNm1 (DYNAMICS)  min=  0.00000000000000E+00
DEBUG_STATS_RL:               GsNm1 (DYNAMICS)  max=  0.00000000000000E+00
DEBUG_STATS_RL:               GsNm1 (DYNAMICS) mean=  0.00000000000000E+00
DEBUG_STATS_RL:               GsNm1 (DYNAMICS) S.D.=  0.00000000000000E+00
DEBUG_STATS_RL:    cg2d_b (SOLVE_FOR_PRESSURE)  min= -7.29975929937829E+03
DEBUG_STATS_RL:    cg2d_b (SOLVE_FOR_PRESSURE)  max=  2.19478299507011E+03
DEBUG_STATS_RL:    cg2d_b (SOLVE_FOR_PRESSURE) mean= -2.31163236700619E-13
DEBUG_STATS_RL:    cg2d_b (SOLVE_FOR_PRESSURE) S.D.=  8.94146290227471E+02
 cg2d: Sum(rhs),rhsMax =  -4.60395610524245E-15  1.17489186776830E+00
DEBUG_STATS_RL:    cg2d_x (SOLVE_FOR_PRESSURE)  min= -1.08771127617235E+00
DEBUG_STATS_RL:    cg2d_x (SOLVE_FOR_PRESSURE)  max=  3.12128519797515E+00
DEBUG_STATS_RL:    cg2d_x (SOLVE_FOR_PRESSURE) mean= -4.19588396852874E-02
DEBUG_STATS_RL:    cg2d_x (SOLVE_FOR_PRESSURE) S.D.=  6.20262122262862E-01
DEBUG_STATS_RL:          Uvel (THERMODYNAMICS)  min= -5.12375198217515E-02
DEBUG_STATS_RL:          Uvel (THERMODYNAMICS)  max=  8.84896388076352E-02
DEBUG_STATS_RL:          Uvel (THERMODYNAMICS) mean=  2.55769138538801E-03
DEBUG_STATS_RL:          Uvel (THERMODYNAMICS) S.D.=  1.29064693910175E-02
DEBUG_STATS_RL:          Vvel (THERMODYNAMICS)  min= -1.29344604199492E-01
DEBUG_STATS_RL:          Vvel (THERMODYNAMICS)  max=  4.58633296186252E-02
DEBUG_STATS_RL:          Vvel (THERMODYNAMICS) mean= -4.14107843005926E-03
DEBUG_STATS_RL:          Vvel (THERMODYNAMICS) S.D.=  1.66082836245766E-02
DEBUG_STATS_RL:          Wvel (THERMODYNAMICS)  min= -2.60848991809590E-04
DEBUG_STATS_RL:          Wvel (THERMODYNAMICS)  max=  2.85731299794374E-04
DEBUG_STATS_RL:          Wvel (THERMODYNAMICS) mean=  1.36793666178932E-07
DEBUG_STATS_RL:          Wvel (THERMODYNAMICS) S.D.=  2.70580054557617E-05
DEBUG_STATS_RL:         Theta (THERMODYNAMICS)  min= -1.95932886747261E+00
DEBUG_STATS_RL:         Theta (THERMODYNAMICS)  max=  1.32010303660583E+01
DEBUG_STATS_RL:         Theta (THERMODYNAMICS) mean=  2.41452315045422E+00
DEBUG_STATS_RL:         Theta (THERMODYNAMICS) S.D.=  2.57350774067654E+00
DEBUG_STATS_RL:          Salt (THERMODYNAMICS)  min=  2.76435505129419E+01
DEBUG_STATS_RL:          Salt (THERMODYNAMICS)  max=  3.54508660670958E+01
DEBUG_STATS_RL:          Salt (THERMODYNAMICS) mean=  3.39367749828880E+01
DEBUG_STATS_RL:          Salt (THERMODYNAMICS) S.D.=  1.15309738582072E+00
DEBUG_STATS_RL:         GtNm1 (THERMODYNAMICS)  min=  0.00000000000000E+00
DEBUG_STATS_RL:         GtNm1 (THERMODYNAMICS)  max=  0.00000000000000E+00
DEBUG_STATS_RL:         GtNm1 (THERMODYNAMICS) mean=  0.00000000000000E+00
DEBUG_STATS_RL:         GtNm1 (THERMODYNAMICS) S.D.=  0.00000000000000E+00
DEBUG_STATS_RL:         GsNm1 (THERMODYNAMICS)  min=  0.00000000000000E+00
DEBUG_STATS_RL:         GsNm1 (THERMODYNAMICS)  max=  0.00000000000000E+00
DEBUG_STATS_RL:         GsNm1 (THERMODYNAMICS) mean=  0.00000000000000E+00
DEBUG_STATS_RL:         GsNm1 (THERMODYNAMICS) S.D.=  0.00000000000000E+00
(PID.TID 0000.0001) Did not write pickup because writePickupAtEnd = FALSE
(PID.TID 0000.0001)  MDS_WRITE_FIELD: it,rec,kS,kL,kH=       1    10   1   1   1 file=m_sst_step.0000000001
(PID.TID 0000.0001) gencost # 03
(PID.TID 0000.0001)  MDS_READ_FIELD: opening global file: sigma_sst.bin
(PID.TID 0000.0001)  MDS_READ_FIELD: opening global file: m_sst_step.0000000001.data
(PID.TID 0000.0001)  MDS_READ_FIELD: opening global file: labsea_SST_fields_t10
(PID.TID 0000.0001)  MDS_WRITE_FIELD: it,rec,kS,kL,kH=       1     1   1   1   1 file=misfit_sst
(PID.TID 0000.0001)  MDS_READ_FIELD: opening global file: sigma_sst.bin
(PID.TID 0000.0001)  MDS_READ_FIELD: opening global file: m_sst_step.0000000001.data
(PID.TID 0000.0001)  MDS_READ_FIELD: opening global file: labsea_SST_fields_t10
(PID.TID 0000.0001)  MDS_WRITE_FIELD: it,rec,kS,kL,kH=       1     2   1   1   1 file=misfit_sst
(PID.TID 0000.0001)  MDS_READ_FIELD: opening global file: sigma_sst.bin
(PID.TID 0000.0001)  MDS_READ_FIELD: opening global file: m_sst_step.0000000001.data
(PID.TID 0000.0001)  MDS_READ_FIELD: opening global file: labsea_SST_fields_t10
(PID.TID 0000.0001)  MDS_WRITE_FIELD: it,rec,kS,kL,kH=       1     3   1   1   1 file=misfit_sst
(PID.TID 0000.0001)  MDS_READ_FIELD: opening global file: sigma_sst.bin
(PID.TID 0000.0001)  MDS_READ_FIELD: opening global file: m_sst_step.0000000001.data
(PID.TID 0000.0001)  MDS_READ_FIELD: opening global file: labsea_SST_fields_t10
(PID.TID 0000.0001)  MDS_WRITE_FIELD: it,rec,kS,kL,kH=       1     4   1   1   1 file=misfit_sst
(PID.TID 0000.0001)  MDS_READ_FIELD: opening global file: sigma_sst.bin
(PID.TID 0000.0001)  MDS_READ_FIELD: opening global file: m_sst_step.0000000001.data
(PID.TID 0000.0001)  MDS_READ_FIELD: opening global file: labsea_SST_fields_t10
(PID.TID 0000.0001)  MDS_WRITE_FIELD: it,rec,kS,kL,kH=       1     5   1   1   1 file=misfit_sst
(PID.TID 0000.0001)  MDS_READ_FIELD: opening global file: sigma_sst.bin
(PID.TID 0000.0001)  MDS_READ_FIELD: opening global file: m_sst_step.0000000001.data
(PID.TID 0000.0001)  MDS_READ_FIELD: opening global file: labsea_SST_fields_t10
(PID.TID 0000.0001)  MDS_WRITE_FIELD: it,rec,kS,kL,kH=       1     6   1   1   1 file=misfit_sst
(PID.TID 0000.0001)  MDS_READ_FIELD: opening global file: sigma_sst.bin
(PID.TID 0000.0001)  MDS_READ_FIELD: opening global file: m_sst_step.0000000001.data
(PID.TID 0000.0001)  MDS_READ_FIELD: opening global file: labsea_SST_fields_t10
(PID.TID 0000.0001)  MDS_WRITE_FIELD: it,rec,kS,kL,kH=       1     7   1   1   1 file=misfit_sst
(PID.TID 0000.0001)  MDS_READ_FIELD: opening global file: sigma_sst.bin
(PID.TID 0000.0001)  MDS_READ_FIELD: opening global file: m_sst_step.0000000001.data
(PID.TID 0000.0001)  MDS_READ_FIELD: opening global file: labsea_SST_fields_t10
(PID.TID 0000.0001)  MDS_WRITE_FIELD: it,rec,kS,kL,kH=       1     8   1   1   1 file=misfit_sst
(PID.TID 0000.0001)  MDS_READ_FIELD: opening global file: sigma_sst.bin
(PID.TID 0000.0001)  MDS_READ_FIELD: opening global file: m_sst_step.0000000001.data
(PID.TID 0000.0001)  MDS_READ_FIELD: opening global file: labsea_SST_fields_t10
(PID.TID 0000.0001)  MDS_WRITE_FIELD: it,rec,kS,kL,kH=       1     9   1   1   1 file=misfit_sst
(PID.TID 0000.0001)  MDS_READ_FIELD: opening global file: sigma_sst.bin
(PID.TID 0000.0001)  MDS_READ_FIELD: opening global file: m_sst_step.0000000001.data
(PID.TID 0000.0001)  MDS_READ_FIELD: opening global file: labsea_SST_fields_t10
(PID.TID 0000.0001)  MDS_WRITE_FIELD: it,rec,kS,kL,kH=       1    10   1   1   1 file=misfit_sst
(PID.TID 0000.0001)  MDS_READ_FIELD: opening global file: xx_atemp.0000000001.data
(PID.TID 0000.0001)  MDS_READ_FIELD: opening global file: xx_atemp.0000000001.data
(PID.TID 0000.0001)  MDS_READ_FIELD: opening global file: xx_atemp.0000000001.data
(PID.TID 0000.0001)  MDS_READ_FIELD: opening global file: xx_atemp.0000000001.data
(PID.TID 0000.0001)  MDS_READ_FIELD: opening global file: xx_atemp.0000000001.data
(PID.TID 0000.0001)  MDS_READ_FIELD: opening global file: xx_atemp.0000000001.data
(PID.TID 0000.0001)  MDS_READ_FIELD: opening global file: xx_atemp.0000000001.data
(PID.TID 0000.0001)  MDS_READ_FIELD: opening global file: xx_atemp.0000000001.data
(PID.TID 0000.0001)  MDS_READ_FIELD: opening global file: xx_atemp.0000000001.data
(PID.TID 0000.0001)  MDS_READ_FIELD: opening global file: xx_atemp.0000000001.data
(PID.TID 0000.0001)  MDS_READ_FIELD: opening global file: xx_atemp.0000000001.data
 --> f_ice     = 0.000000000000000D+00
 --> f_smrarea = 0.000000000000000D+00
 --> f_smrarea = 0.000000000000000D+00
 --> f_smrarea = 0.000000000000000D+00
(PID.TID 0000.0001)  --> f_gencost = 0.527453128215443D+04 3
(PID.TID 0000.0001)  --> f_gentim2d = 0.243374980010000D+03 1
(PID.TID 0000.0001)  --> fc               = 0.527453128215443D+04
(PID.TID 0000.0001)  cost_Final: final cost function =  0.527453128215443D+04
(PID.TID 0000.0001) 
(PID.TID 0000.0001)              cost function evaluation finished.
(PID.TID 0000.0001) 
(PID.TID 0000.0001)   early fc =  0.000000000000000D+00
(PID.TID 0000.0001)   local fc =  0.527453128215443D+04
(PID.TID 0000.0001)  global fc =  0.527453128215443D+04
(PID.TID 0000.0001) grdchk perturb(-)fc: fcpertminus =  5.27453128215443E+03
(PID.TID 0000.0001)  MDS_READ_FIELD: opening global file: xx_atemp.0000000001.data
(PID.TID 0000.0001)  MDS_WRITE_FIELD: it,rec,kS,kL,kH=       1     1   1   1   1 file=xx_atemp.0000000001
grad-res -------------------------------
 grad-res     0    4    9    8    1    1    1    1   5.27453128215E+03  5.27453128215E+03  5.27453128215E+03
 grad-res     0    4    4   78    0    1    1    1  -1.31404611364E+05  2.18278728426E-07  1.00000000000E+00
(PID.TID 0000.0001)  ADM  ref_cost_function      =  5.27453128215446E+03
(PID.TID 0000.0001)  ADM  adjoint_gradient       = -1.31404611363645E+05
(PID.TID 0000.0001)  ADM  finite-diff_grad       =  2.18278728425503E-07
(PID.TID 0000.0001) ====== End of gradient-check number   4 (ierr=  0) =======
(PID.TID 0000.0001) ====== Starts gradient-check number   5 (=ichknum) =======
 ph-test icomp, ncvarcomp, ichknum           79        1650           5
 ph-grd _loc: bi, bj, icomptest, ichknum            1           1          78           5
 ph-grd -->hit<--           10           8           1           1
(PID.TID 0000.0001) grdchk pos: i,j,k=   10    8    1 ; bi,bj=   1   1 ; iobc=  1 ; rec=   1
(PID.TID 0000.0001)  MDS_READ_FIELD: opening global file: adxx_atemp.0000000001.data
(PID.TID 0000.0001)  MDS_READ_FIELD: opening global file: xx_atemp.0000000001.data
(PID.TID 0000.0001)  MDS_WRITE_FIELD: it,rec,kS,kL,kH=       1     1   1   1   1 file=xx_atemp.0000000001
(PID.TID 0000.0001)  MDS_READ_FIELD: opening global file: LevCli_temp.labsea1979
(PID.TID 0000.0001)  MDS_READ_FIELD: opening global file: LevCli_salt.labsea1979
(PID.TID 0000.0001) Start initial hydrostatic pressure computation
(PID.TID 0000.0001) Pressure is predetermined for buoyancyRelation OCEANIC
(PID.TID 0000.0001) 
(PID.TID 0000.0001) CTRL_INIT_REC: Getting record indices for xx_atemp
(PID.TID 0000.0001) CTRL_INIT_REC: Record indices for xx_atemp:
(PID.TID 0000.0001) CTRL_INIT_REC: startrec =          1, endrec =         11
(PID.TID 0000.0001)  MDS_READ_FIELD: opening global file: xx_atemp.0000000001.data
(PID.TID 0000.0001)  MDS_WRITE_FIELD: it,rec,kS,kL,kH=       1     1   1   1   1 file=xx_atemp.effective.0000000001
(PID.TID 0000.0001)  MDS_READ_FIELD: opening global file: xx_atemp.0000000001.data
(PID.TID 0000.0001)  MDS_WRITE_FIELD: it,rec,kS,kL,kH=       1     2   1   1   1 file=xx_atemp.effective.0000000001
(PID.TID 0000.0001)  MDS_READ_FIELD: opening global file: xx_atemp.0000000001.data
(PID.TID 0000.0001)  MDS_WRITE_FIELD: it,rec,kS,kL,kH=       1     3   1   1   1 file=xx_atemp.effective.0000000001
(PID.TID 0000.0001)  MDS_READ_FIELD: opening global file: xx_atemp.0000000001.data
(PID.TID 0000.0001)  MDS_WRITE_FIELD: it,rec,kS,kL,kH=       1     4   1   1   1 file=xx_atemp.effective.0000000001
(PID.TID 0000.0001)  MDS_READ_FIELD: opening global file: xx_atemp.0000000001.data
(PID.TID 0000.0001)  MDS_WRITE_FIELD: it,rec,kS,kL,kH=       1     5   1   1   1 file=xx_atemp.effective.0000000001
(PID.TID 0000.0001)  MDS_READ_FIELD: opening global file: xx_atemp.0000000001.data
(PID.TID 0000.0001)  MDS_WRITE_FIELD: it,rec,kS,kL,kH=       1     6   1   1   1 file=xx_atemp.effective.0000000001
(PID.TID 0000.0001)  MDS_READ_FIELD: opening global file: xx_atemp.0000000001.data
(PID.TID 0000.0001)  MDS_WRITE_FIELD: it,rec,kS,kL,kH=       1     7   1   1   1 file=xx_atemp.effective.0000000001
(PID.TID 0000.0001)  MDS_READ_FIELD: opening global file: xx_atemp.0000000001.data
(PID.TID 0000.0001)  MDS_WRITE_FIELD: it,rec,kS,kL,kH=       1     8   1   1   1 file=xx_atemp.effective.0000000001
(PID.TID 0000.0001)  MDS_READ_FIELD: opening global file: xx_atemp.0000000001.data
(PID.TID 0000.0001)  MDS_WRITE_FIELD: it,rec,kS,kL,kH=       1     9   1   1   1 file=xx_atemp.effective.0000000001
(PID.TID 0000.0001)  MDS_READ_FIELD: opening global file: xx_atemp.0000000001.data
(PID.TID 0000.0001)  MDS_WRITE_FIELD: it,rec,kS,kL,kH=       1    10   1   1   1 file=xx_atemp.effective.0000000001
(PID.TID 0000.0001)  MDS_READ_FIELD: opening global file: xx_atemp.0000000001.data
(PID.TID 0000.0001)  MDS_WRITE_FIELD: it,rec,kS,kL,kH=       1    11   1   1   1 file=xx_atemp.effective.0000000001
(PID.TID 0000.0001)  MDS_READ_FIELD: opening global file: xx_atemp.effective.0000000001.data
(PID.TID 0000.0001)  MDS_READ_FIELD: opening global file: ones_64b.bin
(PID.TID 0000.0001)  MDS_WRITE_FIELD: it,rec,kS,kL,kH=       1     1   1   1   1 file=xx_atemp.effective.0000000001
(PID.TID 0000.0001)  MDS_READ_FIELD: opening global file: xx_atemp.effective.0000000001.data
(PID.TID 0000.0001)  MDS_READ_FIELD: opening global file: ones_64b.bin
(PID.TID 0000.0001)  MDS_WRITE_FIELD: it,rec,kS,kL,kH=       1     2   1   1   1 file=xx_atemp.effective.0000000001
(PID.TID 0000.0001)  MDS_READ_FIELD: opening global file: xx_atemp.effective.0000000001.data
(PID.TID 0000.0001)  MDS_READ_FIELD: opening global file: ones_64b.bin
(PID.TID 0000.0001)  MDS_WRITE_FIELD: it,rec,kS,kL,kH=       1     3   1   1   1 file=xx_atemp.effective.0000000001
(PID.TID 0000.0001)  MDS_READ_FIELD: opening global file: xx_atemp.effective.0000000001.data
(PID.TID 0000.0001)  MDS_READ_FIELD: opening global file: ones_64b.bin
(PID.TID 0000.0001)  MDS_WRITE_FIELD: it,rec,kS,kL,kH=       1     4   1   1   1 file=xx_atemp.effective.0000000001
(PID.TID 0000.0001)  MDS_READ_FIELD: opening global file: xx_atemp.effective.0000000001.data
(PID.TID 0000.0001)  MDS_READ_FIELD: opening global file: ones_64b.bin
(PID.TID 0000.0001)  MDS_WRITE_FIELD: it,rec,kS,kL,kH=       1     5   1   1   1 file=xx_atemp.effective.0000000001
(PID.TID 0000.0001)  MDS_READ_FIELD: opening global file: xx_atemp.effective.0000000001.data
(PID.TID 0000.0001)  MDS_READ_FIELD: opening global file: ones_64b.bin
(PID.TID 0000.0001)  MDS_WRITE_FIELD: it,rec,kS,kL,kH=       1     6   1   1   1 file=xx_atemp.effective.0000000001
(PID.TID 0000.0001)  MDS_READ_FIELD: opening global file: xx_atemp.effective.0000000001.data
(PID.TID 0000.0001)  MDS_READ_FIELD: opening global file: ones_64b.bin
(PID.TID 0000.0001)  MDS_WRITE_FIELD: it,rec,kS,kL,kH=       1     7   1   1   1 file=xx_atemp.effective.0000000001
(PID.TID 0000.0001)  MDS_READ_FIELD: opening global file: xx_atemp.effective.0000000001.data
(PID.TID 0000.0001)  MDS_READ_FIELD: opening global file: ones_64b.bin
(PID.TID 0000.0001)  MDS_WRITE_FIELD: it,rec,kS,kL,kH=       1     8   1   1   1 file=xx_atemp.effective.0000000001
(PID.TID 0000.0001)  MDS_READ_FIELD: opening global file: xx_atemp.effective.0000000001.data
(PID.TID 0000.0001)  MDS_READ_FIELD: opening global file: ones_64b.bin
(PID.TID 0000.0001)  MDS_WRITE_FIELD: it,rec,kS,kL,kH=       1     9   1   1   1 file=xx_atemp.effective.0000000001
(PID.TID 0000.0001)  MDS_READ_FIELD: opening global file: xx_atemp.effective.0000000001.data
(PID.TID 0000.0001)  MDS_READ_FIELD: opening global file: ones_64b.bin
(PID.TID 0000.0001)  MDS_WRITE_FIELD: it,rec,kS,kL,kH=       1    10   1   1   1 file=xx_atemp.effective.0000000001
(PID.TID 0000.0001)  MDS_READ_FIELD: opening global file: xx_atemp.effective.0000000001.data
(PID.TID 0000.0001)  MDS_READ_FIELD: opening global file: ones_64b.bin
(PID.TID 0000.0001)  MDS_WRITE_FIELD: it,rec,kS,kL,kH=       1    11   1   1   1 file=xx_atemp.effective.0000000001
(PID.TID 0000.0001) // =======================================================
(PID.TID 0000.0001) // Model current state
(PID.TID 0000.0001) // =======================================================
(PID.TID 0000.0001) 
(PID.TID 0000.0001)  MDS_WRITE_FIELD: it,rec,kS,kL,kH=       1     1   1   1   1 file=m_sst_step.0000000001
(PID.TID 0000.0001)  MDS_READ_FIELD: opening global file: xx_atemp.effective.0000000001.data
(PID.TID 0000.0001)  MDS_READ_FIELD: opening global file: xx_atemp.effective.0000000001.data
(PID.TID 0000.0001) EXF_SET_FLD: processing field "climsss",  file: SSS_monthly.labsea1979
(PID.TID 0000.0001) EXF_SET_FLD:   myIter, count0, count1:         0      1      2
(PID.TID 0000.0001) EXF_SET_FLD:   first, changed, fac:   T   F    0.50000000000000000
(PID.TID 0000.0001) EXF_SET_FLD: field "climsss", it=         0, loading rec=     1
(PID.TID 0000.0001) EXF_SET_FLD:   from file: "SSS_monthly.labsea1979"
(PID.TID 0000.0001)  MDS_READ_FIELD: opening global file: SSS_monthly.labsea1979
(PID.TID 0000.0001) EXF_SET_FLD: field "climsss", it=         0, loading rec=     2
(PID.TID 0000.0001) EXF_SET_FLD:   from file: "SSS_monthly.labsea1979"
(PID.TID 0000.0001)  MDS_READ_FIELD: opening global file: SSS_monthly.labsea1979
(PID.TID 0000.0001) EXF_SET_FLD: processing field "uwind",  file: u10m.labsea1979
(PID.TID 0000.0001) EXF_SET_FLD:   myIter, count0, count1:         0      1      2
(PID.TID 0000.0001) EXF_SET_FLD:   first, changed, fac:   T   F    0.50000000000000000
(PID.TID 0000.0001) EXF_SET_FLD: field "uwind", it=         0, loading rec=     1
(PID.TID 0000.0001) EXF_SET_FLD:   from file: "u10m.labsea1979"
(PID.TID 0000.0001)  MDS_READ_FIELD: opening global file: u10m.labsea1979
(PID.TID 0000.0001) EXF_SET_FLD: field "uwind", it=         0, loading rec=     2
(PID.TID 0000.0001) EXF_SET_FLD:   from file: "u10m.labsea1979"
(PID.TID 0000.0001)  MDS_READ_FIELD: opening global file: u10m.labsea1979
(PID.TID 0000.0001) EXF_SET_FLD: processing field "vwind",  file: v10m.labsea1979
(PID.TID 0000.0001) EXF_SET_FLD:   myIter, count0, count1:         0      1      2
(PID.TID 0000.0001) EXF_SET_FLD:   first, changed, fac:   T   F    0.50000000000000000
(PID.TID 0000.0001) EXF_SET_FLD: field "vwind", it=         0, loading rec=     1
(PID.TID 0000.0001) EXF_SET_FLD:   from file: "v10m.labsea1979"
(PID.TID 0000.0001)  MDS_READ_FIELD: opening global file: v10m.labsea1979
(PID.TID 0000.0001) EXF_SET_FLD: field "vwind", it=         0, loading rec=     2
(PID.TID 0000.0001) EXF_SET_FLD:   from file: "v10m.labsea1979"
(PID.TID 0000.0001)  MDS_READ_FIELD: opening global file: v10m.labsea1979
(PID.TID 0000.0001) EXF_SET_FLD: processing field "atemp",  file: tair.labsea1979
(PID.TID 0000.0001) EXF_SET_FLD:   myIter, count0, count1:         0      1      2
(PID.TID 0000.0001) EXF_SET_FLD:   first, changed, fac:   T   F    0.50000000000000000
(PID.TID 0000.0001) EXF_SET_FLD: field "atemp", it=         0, loading rec=     1
(PID.TID 0000.0001) EXF_SET_FLD:   from file: "tair.labsea1979"
(PID.TID 0000.0001)  MDS_READ_FIELD: opening global file: tair.labsea1979
(PID.TID 0000.0001) EXF_SET_FLD: field "atemp", it=         0, loading rec=     2
(PID.TID 0000.0001) EXF_SET_FLD:   from file: "tair.labsea1979"
(PID.TID 0000.0001)  MDS_READ_FIELD: opening global file: tair.labsea1979
(PID.TID 0000.0001) EXF_SET_FLD: processing field "aqh",  file: qa.labsea1979
(PID.TID 0000.0001) EXF_SET_FLD:   myIter, count0, count1:         0      1      2
(PID.TID 0000.0001) EXF_SET_FLD:   first, changed, fac:   T   F    0.50000000000000000
(PID.TID 0000.0001) EXF_SET_FLD: field "aqh", it=         0, loading rec=     1
(PID.TID 0000.0001) EXF_SET_FLD:   from file: "qa.labsea1979"
(PID.TID 0000.0001)  MDS_READ_FIELD: opening global file: qa.labsea1979
(PID.TID 0000.0001) EXF_SET_FLD: field "aqh", it=         0, loading rec=     2
(PID.TID 0000.0001) EXF_SET_FLD:   from file: "qa.labsea1979"
(PID.TID 0000.0001)  MDS_READ_FIELD: opening global file: qa.labsea1979
(PID.TID 0000.0001) EXF_SET_FLD: processing field "precip",  file: prate.labsea1979
(PID.TID 0000.0001) EXF_SET_FLD:   myIter, count0, count1:         0      1      2
(PID.TID 0000.0001) EXF_SET_FLD:   first, changed, fac:   T   F    0.50000000000000000
(PID.TID 0000.0001) EXF_SET_FLD: field "precip", it=         0, loading rec=     1
(PID.TID 0000.0001) EXF_SET_FLD:   from file: "prate.labsea1979"
(PID.TID 0000.0001)  MDS_READ_FIELD: opening global file: prate.labsea1979
(PID.TID 0000.0001) EXF_SET_FLD: field "precip", it=         0, loading rec=     2
(PID.TID 0000.0001) EXF_SET_FLD:   from file: "prate.labsea1979"
(PID.TID 0000.0001)  MDS_READ_FIELD: opening global file: prate.labsea1979
(PID.TID 0000.0001) EXF_SET_FLD: processing field "swdown",  file: fsh.labsea1979
(PID.TID 0000.0001) EXF_SET_FLD:   myIter, count0, count1:         0      1      2
(PID.TID 0000.0001) EXF_SET_FLD:   first, changed, fac:   T   F    0.50000000000000000
(PID.TID 0000.0001) EXF_SET_FLD: field "swdown", it=         0, loading rec=     1
(PID.TID 0000.0001) EXF_SET_FLD:   from file: "fsh.labsea1979"
(PID.TID 0000.0001)  MDS_READ_FIELD: opening global file: fsh.labsea1979
(PID.TID 0000.0001) EXF_SET_FLD: field "swdown", it=         0, loading rec=     2
(PID.TID 0000.0001) EXF_SET_FLD:   from file: "fsh.labsea1979"
(PID.TID 0000.0001)  MDS_READ_FIELD: opening global file: fsh.labsea1979
(PID.TID 0000.0001) EXF_SET_FLD: processing field "lwdown",  file: flo.labsea1979
(PID.TID 0000.0001) EXF_SET_FLD:   myIter, count0, count1:         0      1      2
(PID.TID 0000.0001) EXF_SET_FLD:   first, changed, fac:   T   F    0.50000000000000000
(PID.TID 0000.0001) EXF_SET_FLD: field "lwdown", it=         0, loading rec=     1
(PID.TID 0000.0001) EXF_SET_FLD:   from file: "flo.labsea1979"
(PID.TID 0000.0001)  MDS_READ_FIELD: opening global file: flo.labsea1979
(PID.TID 0000.0001) EXF_SET_FLD: field "lwdown", it=         0, loading rec=     2
(PID.TID 0000.0001) EXF_SET_FLD:   from file: "flo.labsea1979"
(PID.TID 0000.0001)  MDS_READ_FIELD: opening global file: flo.labsea1979
DEBUG_STATS_RL: Uice pre  iter (SEAICE_LSR  1)  min=  0.00000000000000E+00
DEBUG_STATS_RL: Uice pre  iter (SEAICE_LSR  1)  max=  0.00000000000000E+00
DEBUG_STATS_RL: Uice pre  iter (SEAICE_LSR  1) mean=  0.00000000000000E+00
DEBUG_STATS_RL: Uice pre  iter (SEAICE_LSR  1) S.D.=  0.00000000000000E+00
DEBUG_STATS_RL: Vice pre  iter (SEAICE_LSR  1)  min=  0.00000000000000E+00
DEBUG_STATS_RL: Vice pre  iter (SEAICE_LSR  1)  max=  0.00000000000000E+00
DEBUG_STATS_RL: Vice pre  iter (SEAICE_LSR  1) mean=  0.00000000000000E+00
DEBUG_STATS_RL: Vice pre  iter (SEAICE_LSR  1) S.D.=  0.00000000000000E+00
DEBUG_STATS_RL: Uice pre  iter (SEAICE_LSR  2)  min= -4.74478293331770E-04
DEBUG_STATS_RL: Uice pre  iter (SEAICE_LSR  2)  max=  5.19863184318560E-03
DEBUG_STATS_RL: Uice pre  iter (SEAICE_LSR  2) mean=  1.15969103043184E-03
DEBUG_STATS_RL: Uice pre  iter (SEAICE_LSR  2) S.D.=  1.37050304765703E-03
DEBUG_STATS_RL: Vice pre  iter (SEAICE_LSR  2)  min= -2.82028703630720E-03
DEBUG_STATS_RL: Vice pre  iter (SEAICE_LSR  2)  max=  8.55909305417855E-04
DEBUG_STATS_RL: Vice pre  iter (SEAICE_LSR  2) mean= -7.32602707228794E-04
DEBUG_STATS_RL: Vice pre  iter (SEAICE_LSR  2) S.D.=  9.65742386214621E-04
DEBUG_STATS_RL:                EtaN (DYNAMICS)  min=  0.00000000000000E+00
DEBUG_STATS_RL:                EtaN (DYNAMICS)  max=  0.00000000000000E+00
DEBUG_STATS_RL:                EtaN (DYNAMICS) mean=  0.00000000000000E+00
DEBUG_STATS_RL:                EtaN (DYNAMICS) S.D.=  0.00000000000000E+00
DEBUG_STATS_RL:                Uvel (DYNAMICS)  min=  0.00000000000000E+00
DEBUG_STATS_RL:                Uvel (DYNAMICS)  max=  0.00000000000000E+00
DEBUG_STATS_RL:                Uvel (DYNAMICS) mean=  0.00000000000000E+00
DEBUG_STATS_RL:                Uvel (DYNAMICS) S.D.=  0.00000000000000E+00
DEBUG_STATS_RL:                Vvel (DYNAMICS)  min=  0.00000000000000E+00
DEBUG_STATS_RL:                Vvel (DYNAMICS)  max=  0.00000000000000E+00
DEBUG_STATS_RL:                Vvel (DYNAMICS) mean=  0.00000000000000E+00
DEBUG_STATS_RL:                Vvel (DYNAMICS) S.D.=  0.00000000000000E+00
DEBUG_STATS_RL:                Wvel (DYNAMICS)  min=  0.00000000000000E+00
DEBUG_STATS_RL:                Wvel (DYNAMICS)  max=  0.00000000000000E+00
DEBUG_STATS_RL:                Wvel (DYNAMICS) mean=  0.00000000000000E+00
DEBUG_STATS_RL:                Wvel (DYNAMICS) S.D.=  0.00000000000000E+00
DEBUG_STATS_RL:               Theta (DYNAMICS)  min= -1.41036188602448E+00
DEBUG_STATS_RL:               Theta (DYNAMICS)  max=  1.33330764770508E+01
DEBUG_STATS_RL:               Theta (DYNAMICS) mean=  2.90475522269124E+00
DEBUG_STATS_RL:               Theta (DYNAMICS) S.D.=  2.44037465259698E+00
DEBUG_STATS_RL:                Salt (DYNAMICS)  min=  3.01286983489990E+01
DEBUG_STATS_RL:                Salt (DYNAMICS)  max=  3.54506225585938E+01
DEBUG_STATS_RL:                Salt (DYNAMICS) mean=  3.40845304745500E+01
DEBUG_STATS_RL:                Salt (DYNAMICS) S.D.=  9.00924836964808E-01
DEBUG_STATS_RL:                  Gu (DYNAMICS)  min= -2.00599447531986E-02
DEBUG_STATS_RL:                  Gu (DYNAMICS)  max=  1.04076999541495E-02
DEBUG_STATS_RL:                  Gu (DYNAMICS) mean= -2.58939542765896E-03
DEBUG_STATS_RL:                  Gu (DYNAMICS) S.D.=  4.84472279217175E-03
DEBUG_STATS_RL:                  Gv (DYNAMICS)  min= -2.97181268783620E-02
DEBUG_STATS_RL:                  Gv (DYNAMICS)  max=  1.05795727308992E-02
DEBUG_STATS_RL:                  Gv (DYNAMICS) mean= -1.51075895161939E-03
DEBUG_STATS_RL:                  Gv (DYNAMICS) S.D.=  5.23505354600419E-03
DEBUG_STATS_RL:               GuNm1 (DYNAMICS)  min=  0.00000000000000E+00
DEBUG_STATS_RL:               GuNm1 (DYNAMICS)  max=  0.00000000000000E+00
DEBUG_STATS_RL:               GuNm1 (DYNAMICS) mean=  0.00000000000000E+00
DEBUG_STATS_RL:               GuNm1 (DYNAMICS) S.D.=  0.00000000000000E+00
DEBUG_STATS_RL:               GvNm1 (DYNAMICS)  min=  0.00000000000000E+00
DEBUG_STATS_RL:               GvNm1 (DYNAMICS)  max=  0.00000000000000E+00
DEBUG_STATS_RL:               GvNm1 (DYNAMICS) mean=  0.00000000000000E+00
DEBUG_STATS_RL:               GvNm1 (DYNAMICS) S.D.=  0.00000000000000E+00
DEBUG_STATS_RL:               GtNm1 (DYNAMICS)  min=  0.00000000000000E+00
DEBUG_STATS_RL:               GtNm1 (DYNAMICS)  max=  0.00000000000000E+00
DEBUG_STATS_RL:               GtNm1 (DYNAMICS) mean=  0.00000000000000E+00
DEBUG_STATS_RL:               GtNm1 (DYNAMICS) S.D.=  0.00000000000000E+00
DEBUG_STATS_RL:               GsNm1 (DYNAMICS)  min=  0.00000000000000E+00
DEBUG_STATS_RL:               GsNm1 (DYNAMICS)  max=  0.00000000000000E+00
DEBUG_STATS_RL:               GsNm1 (DYNAMICS) mean=  0.00000000000000E+00
DEBUG_STATS_RL:               GsNm1 (DYNAMICS) S.D.=  0.00000000000000E+00
(PID.TID 0000.0001) SOLVE_FOR_PRESSURE: putPmEinXvector =    F
DEBUG_STATS_RL:    cg2d_b (SOLVE_FOR_PRESSURE)  min= -6.15797366908278E+03
DEBUG_STATS_RL:    cg2d_b (SOLVE_FOR_PRESSURE)  max=  2.03762696322118E+03
DEBUG_STATS_RL:    cg2d_b (SOLVE_FOR_PRESSURE) mean=  2.40637139844087E-14
DEBUG_STATS_RL:    cg2d_b (SOLVE_FOR_PRESSURE) S.D.=  8.03730450548215E+02
 cg2d: Sum(rhs),rhsMax =   7.91033905045424E-16  9.91122157459750E-01
DEBUG_STATS_RL:    cg2d_x (SOLVE_FOR_PRESSURE)  min= -7.77200124675132E-01
DEBUG_STATS_RL:    cg2d_x (SOLVE_FOR_PRESSURE)  max=  2.02552651121663E+00
DEBUG_STATS_RL:    cg2d_x (SOLVE_FOR_PRESSURE) mean= -8.58037095103906E-03
DEBUG_STATS_RL:    cg2d_x (SOLVE_FOR_PRESSURE) S.D.=  4.14863218307968E-01
DEBUG_STATS_RL:          Uvel (THERMODYNAMICS)  min= -1.97613285723242E-02
DEBUG_STATS_RL:          Uvel (THERMODYNAMICS)  max=  1.31897193240012E-02
DEBUG_STATS_RL:          Uvel (THERMODYNAMICS) mean= -7.76915115649382E-04
DEBUG_STATS_RL:          Uvel (THERMODYNAMICS) S.D.=  3.97168834923499E-03
DEBUG_STATS_RL:          Vvel (THERMODYNAMICS)  min= -1.13773235335529E-02
DEBUG_STATS_RL:          Vvel (THERMODYNAMICS)  max=  2.04284639774261E-02
DEBUG_STATS_RL:          Vvel (THERMODYNAMICS) mean=  7.24190880687442E-04
DEBUG_STATS_RL:          Vvel (THERMODYNAMICS) S.D.=  4.28907995073846E-03
DEBUG_STATS_RL:          Wvel (THERMODYNAMICS)  min= -4.27131465138430E-05
DEBUG_STATS_RL:          Wvel (THERMODYNAMICS)  max=  1.16530364658749E-04
DEBUG_STATS_RL:          Wvel (THERMODYNAMICS) mean= -4.07763417598552E-07
DEBUG_STATS_RL:          Wvel (THERMODYNAMICS) S.D.=  1.80149904412009E-05
DEBUG_STATS_RL:         Theta (THERMODYNAMICS)  min= -1.41019615972461E+00
DEBUG_STATS_RL:         Theta (THERMODYNAMICS)  max=  1.32440592110212E+01
DEBUG_STATS_RL:         Theta (THERMODYNAMICS) mean=  2.49735783552472E+00
DEBUG_STATS_RL:         Theta (THERMODYNAMICS) S.D.=  2.45807980529386E+00
DEBUG_STATS_RL:          Salt (THERMODYNAMICS)  min=  2.76560994014067E+01
DEBUG_STATS_RL:          Salt (THERMODYNAMICS)  max=  3.54507778736995E+01
DEBUG_STATS_RL:          Salt (THERMODYNAMICS) mean=  3.39623217189224E+01
DEBUG_STATS_RL:          Salt (THERMODYNAMICS) S.D.=  1.10108958710643E+00
DEBUG_STATS_RL:         GtNm1 (THERMODYNAMICS)  min=  0.00000000000000E+00
DEBUG_STATS_RL:         GtNm1 (THERMODYNAMICS)  max=  0.00000000000000E+00
DEBUG_STATS_RL:         GtNm1 (THERMODYNAMICS) mean=  0.00000000000000E+00
DEBUG_STATS_RL:         GtNm1 (THERMODYNAMICS) S.D.=  0.00000000000000E+00
DEBUG_STATS_RL:         GsNm1 (THERMODYNAMICS)  min=  0.00000000000000E+00
DEBUG_STATS_RL:         GsNm1 (THERMODYNAMICS)  max=  0.00000000000000E+00
DEBUG_STATS_RL:         GsNm1 (THERMODYNAMICS) mean=  0.00000000000000E+00
DEBUG_STATS_RL:         GsNm1 (THERMODYNAMICS) S.D.=  0.00000000000000E+00
(PID.TID 0000.0001)  MDS_WRITE_FIELD: it,rec,kS,kL,kH=       1     2   1   1   1 file=m_sst_step.0000000001
(PID.TID 0000.0001)  MDS_READ_FIELD: opening global file: xx_atemp.effective.0000000001.data
(PID.TID 0000.0001) EXF_SET_FLD: processing field "climsss",  file: SSS_monthly.labsea1979
(PID.TID 0000.0001) EXF_SET_FLD:   myIter, count0, count1:         1      1      2
(PID.TID 0000.0001) EXF_SET_FLD:   first, changed, fac:   F   F    0.49863387978142082
(PID.TID 0000.0001) EXF_SET_FLD: processing field "uwind",  file: u10m.labsea1979
(PID.TID 0000.0001) EXF_SET_FLD:   myIter, count0, count1:         1      1      2
(PID.TID 0000.0001) EXF_SET_FLD:   first, changed, fac:   F   F    0.49863387978142082
(PID.TID 0000.0001) EXF_SET_FLD: processing field "vwind",  file: v10m.labsea1979
(PID.TID 0000.0001) EXF_SET_FLD:   myIter, count0, count1:         1      1      2
(PID.TID 0000.0001) EXF_SET_FLD:   first, changed, fac:   F   F    0.49863387978142082
(PID.TID 0000.0001) EXF_SET_FLD: processing field "atemp",  file: tair.labsea1979
(PID.TID 0000.0001) EXF_SET_FLD:   myIter, count0, count1:         1      1      2
(PID.TID 0000.0001) EXF_SET_FLD:   first, changed, fac:   F   F    0.49863387978142082
(PID.TID 0000.0001) EXF_SET_FLD: processing field "aqh",  file: qa.labsea1979
(PID.TID 0000.0001) EXF_SET_FLD:   myIter, count0, count1:         1      1      2
(PID.TID 0000.0001) EXF_SET_FLD:   first, changed, fac:   F   F    0.49863387978142082
(PID.TID 0000.0001) EXF_SET_FLD: processing field "precip",  file: prate.labsea1979
(PID.TID 0000.0001) EXF_SET_FLD:   myIter, count0, count1:         1      1      2
(PID.TID 0000.0001) EXF_SET_FLD:   first, changed, fac:   F   F    0.49863387978142082
(PID.TID 0000.0001) EXF_SET_FLD: processing field "swdown",  file: fsh.labsea1979
(PID.TID 0000.0001) EXF_SET_FLD:   myIter, count0, count1:         1      1      2
(PID.TID 0000.0001) EXF_SET_FLD:   first, changed, fac:   F   F    0.49863387978142082
(PID.TID 0000.0001) EXF_SET_FLD: processing field "lwdown",  file: flo.labsea1979
(PID.TID 0000.0001) EXF_SET_FLD:   myIter, count0, count1:         1      1      2
(PID.TID 0000.0001) EXF_SET_FLD:   first, changed, fac:   F   F    0.49863387978142082
DEBUG_STATS_RL: Uice pre  iter (SEAICE_LSR  1)  min= -1.15942749827435E-03
DEBUG_STATS_RL: Uice pre  iter (SEAICE_LSR  1)  max=  1.20418167656252E-02
DEBUG_STATS_RL: Uice pre  iter (SEAICE_LSR  1) mean=  2.64506216410235E-03
DEBUG_STATS_RL: Uice pre  iter (SEAICE_LSR  1) S.D.=  3.13774756817759E-03
DEBUG_STATS_RL: Vice pre  iter (SEAICE_LSR  1)  min= -5.99336397479914E-03
DEBUG_STATS_RL: Vice pre  iter (SEAICE_LSR  1)  max=  4.08760906980194E-03
DEBUG_STATS_RL: Vice pre  iter (SEAICE_LSR  1) mean= -1.18494610218030E-03
DEBUG_STATS_RL: Vice pre  iter (SEAICE_LSR  1) S.D.=  2.51572614879252E-03
DEBUG_STATS_RL: Uice pre  iter (SEAICE_LSR  2)  min= -1.66461661595648E-03
DEBUG_STATS_RL: Uice pre  iter (SEAICE_LSR  2)  max=  2.05817158221004E-01
DEBUG_STATS_RL: Uice pre  iter (SEAICE_LSR  2) mean=  2.18937658776782E-02
DEBUG_STATS_RL: Uice pre  iter (SEAICE_LSR  2) S.D.=  4.15140060700861E-02
DEBUG_STATS_RL: Vice pre  iter (SEAICE_LSR  2)  min= -1.15170217247357E-02
DEBUG_STATS_RL: Vice pre  iter (SEAICE_LSR  2)  max=  6.02623623339015E-02
DEBUG_STATS_RL: Vice pre  iter (SEAICE_LSR  2) mean= -5.88552864176647E-04
DEBUG_STATS_RL: Vice pre  iter (SEAICE_LSR  2) S.D.=  1.21471679479868E-02
DEBUG_STATS_RL:                EtaN (DYNAMICS)  min= -7.91800933896177E-02
DEBUG_STATS_RL:                EtaN (DYNAMICS)  max=  2.06357890624784E-01
DEBUG_STATS_RL:                EtaN (DYNAMICS) mean= -8.74156541733471E-04
DEBUG_STATS_RL:                EtaN (DYNAMICS) S.D.=  4.22657013639480E-02
DEBUG_STATS_RL:                Uvel (DYNAMICS)  min= -1.97613285723242E-02
DEBUG_STATS_RL:                Uvel (DYNAMICS)  max=  1.31897193240012E-02
DEBUG_STATS_RL:                Uvel (DYNAMICS) mean= -7.76915115649382E-04
DEBUG_STATS_RL:                Uvel (DYNAMICS) S.D.=  3.97168834923499E-03
DEBUG_STATS_RL:                Vvel (DYNAMICS)  min= -1.13773235335529E-02
DEBUG_STATS_RL:                Vvel (DYNAMICS)  max=  2.04284639774261E-02
DEBUG_STATS_RL:                Vvel (DYNAMICS) mean=  7.24190880687442E-04
DEBUG_STATS_RL:                Vvel (DYNAMICS) S.D.=  4.28907995073846E-03
DEBUG_STATS_RL:                Wvel (DYNAMICS)  min= -4.27131465138430E-05
DEBUG_STATS_RL:                Wvel (DYNAMICS)  max=  1.16530364658749E-04
DEBUG_STATS_RL:                Wvel (DYNAMICS) mean= -4.07763417598552E-07
DEBUG_STATS_RL:                Wvel (DYNAMICS) S.D.=  1.80149904412009E-05
DEBUG_STATS_RL:               Theta (DYNAMICS)  min= -1.41019615972461E+00
DEBUG_STATS_RL:               Theta (DYNAMICS)  max=  1.32440592110212E+01
DEBUG_STATS_RL:               Theta (DYNAMICS) mean=  2.49735783552472E+00
DEBUG_STATS_RL:               Theta (DYNAMICS) S.D.=  2.45807980529386E+00
DEBUG_STATS_RL:                Salt (DYNAMICS)  min=  2.76560994014067E+01
DEBUG_STATS_RL:                Salt (DYNAMICS)  max=  3.54507778736995E+01
DEBUG_STATS_RL:                Salt (DYNAMICS) mean=  3.39623217189224E+01
DEBUG_STATS_RL:                Salt (DYNAMICS) S.D.=  1.10108958710643E+00
DEBUG_STATS_RL:                  Gu (DYNAMICS)  min= -2.89112950168885E-02
DEBUG_STATS_RL:                  Gu (DYNAMICS)  max=  3.25741619058360E-02
DEBUG_STATS_RL:                  Gu (DYNAMICS) mean= -2.32520622242388E-03
DEBUG_STATS_RL:                  Gu (DYNAMICS) S.D.=  7.09155735785433E-03
DEBUG_STATS_RL:                  Gv (DYNAMICS)  min= -3.71241625510621E-02
DEBUG_STATS_RL:                  Gv (DYNAMICS)  max=  1.83230442031147E-02
DEBUG_STATS_RL:                  Gv (DYNAMICS) mean= -1.89259208721512E-03
DEBUG_STATS_RL:                  Gv (DYNAMICS) S.D.=  7.31046974975296E-03
DEBUG_STATS_RL:               GuNm1 (DYNAMICS)  min= -1.80289983389196E-07
DEBUG_STATS_RL:               GuNm1 (DYNAMICS)  max=  1.49251399870334E-07
DEBUG_STATS_RL:               GuNm1 (DYNAMICS) mean=  3.41794292088730E-09
DEBUG_STATS_RL:               GuNm1 (DYNAMICS) S.D.=  3.19693794884499E-08
DEBUG_STATS_RL:               GvNm1 (DYNAMICS)  min= -5.11118133734402E-08
DEBUG_STATS_RL:               GvNm1 (DYNAMICS)  max=  4.88281454922596E-08
DEBUG_STATS_RL:               GvNm1 (DYNAMICS) mean= -4.70245831256227E-11
DEBUG_STATS_RL:               GvNm1 (DYNAMICS) S.D.=  1.42003013108260E-08
DEBUG_STATS_RL:               GtNm1 (DYNAMICS)  min=  0.00000000000000E+00
DEBUG_STATS_RL:               GtNm1 (DYNAMICS)  max=  0.00000000000000E+00
DEBUG_STATS_RL:               GtNm1 (DYNAMICS) mean=  0.00000000000000E+00
DEBUG_STATS_RL:               GtNm1 (DYNAMICS) S.D.=  0.00000000000000E+00
DEBUG_STATS_RL:               GsNm1 (DYNAMICS)  min=  0.00000000000000E+00
DEBUG_STATS_RL:               GsNm1 (DYNAMICS)  max=  0.00000000000000E+00
DEBUG_STATS_RL:               GsNm1 (DYNAMICS) mean=  0.00000000000000E+00
DEBUG_STATS_RL:               GsNm1 (DYNAMICS) S.D.=  0.00000000000000E+00
DEBUG_STATS_RL:    cg2d_b (SOLVE_FOR_PRESSURE)  min= -7.40048897093643E+03
DEBUG_STATS_RL:    cg2d_b (SOLVE_FOR_PRESSURE)  max=  2.33428667016753E+03
DEBUG_STATS_RL:    cg2d_b (SOLVE_FOR_PRESSURE) mean=  1.07434061646927E-13
DEBUG_STATS_RL:    cg2d_b (SOLVE_FOR_PRESSURE) S.D.=  9.39768538610173E+02
 cg2d: Sum(rhs),rhsMax =   1.49533163629201E-15  1.19110424780756E+00
DEBUG_STATS_RL:    cg2d_x (SOLVE_FOR_PRESSURE)  min= -1.25977767814753E+00
DEBUG_STATS_RL:    cg2d_x (SOLVE_FOR_PRESSURE)  max=  2.83276936769441E+00
DEBUG_STATS_RL:    cg2d_x (SOLVE_FOR_PRESSURE) mean= -1.56118539430309E-02
DEBUG_STATS_RL:    cg2d_x (SOLVE_FOR_PRESSURE) S.D.=  6.63083405130404E-01
DEBUG_STATS_RL:          Uvel (THERMODYNAMICS)  min= -4.02432897586627E-02
DEBUG_STATS_RL:          Uvel (THERMODYNAMICS)  max=  3.23458159885842E-02
DEBUG_STATS_RL:          Uvel (THERMODYNAMICS) mean=  6.75465330203110E-04
DEBUG_STATS_RL:          Uvel (THERMODYNAMICS) S.D.=  7.33761384667195E-03
DEBUG_STATS_RL:          Vvel (THERMODYNAMICS)  min= -1.64862319058734E-02
DEBUG_STATS_RL:          Vvel (THERMODYNAMICS)  max=  4.21759382970969E-02
DEBUG_STATS_RL:          Vvel (THERMODYNAMICS) mean=  1.82858022907681E-03
DEBUG_STATS_RL:          Vvel (THERMODYNAMICS) S.D.=  8.08424055894250E-03
DEBUG_STATS_RL:          Wvel (THERMODYNAMICS)  min= -6.56490529174637E-05
DEBUG_STATS_RL:          Wvel (THERMODYNAMICS)  max=  1.68683217295638E-04
DEBUG_STATS_RL:          Wvel (THERMODYNAMICS) mean= -4.30739495111251E-07
DEBUG_STATS_RL:          Wvel (THERMODYNAMICS) S.D.=  1.89945067258317E-05
DEBUG_STATS_RL:         Theta (THERMODYNAMICS)  min= -1.83156742552816E+00
DEBUG_STATS_RL:         Theta (THERMODYNAMICS)  max=  1.32606612249659E+01
DEBUG_STATS_RL:         Theta (THERMODYNAMICS) mean=  2.43057765558689E+00
DEBUG_STATS_RL:         Theta (THERMODYNAMICS) S.D.=  2.55246643542934E+00
DEBUG_STATS_RL:          Salt (THERMODYNAMICS)  min=  2.76092906345221E+01
DEBUG_STATS_RL:          Salt (THERMODYNAMICS)  max=  3.54509236522671E+01
DEBUG_STATS_RL:          Salt (THERMODYNAMICS) mean=  3.39413044254425E+01
DEBUG_STATS_RL:          Salt (THERMODYNAMICS) S.D.=  1.14495872836736E+00
DEBUG_STATS_RL:         GtNm1 (THERMODYNAMICS)  min=  0.00000000000000E+00
DEBUG_STATS_RL:         GtNm1 (THERMODYNAMICS)  max=  0.00000000000000E+00
DEBUG_STATS_RL:         GtNm1 (THERMODYNAMICS) mean=  0.00000000000000E+00
DEBUG_STATS_RL:         GtNm1 (THERMODYNAMICS) S.D.=  0.00000000000000E+00
DEBUG_STATS_RL:         GsNm1 (THERMODYNAMICS)  min=  0.00000000000000E+00
DEBUG_STATS_RL:         GsNm1 (THERMODYNAMICS)  max=  0.00000000000000E+00
DEBUG_STATS_RL:         GsNm1 (THERMODYNAMICS) mean=  0.00000000000000E+00
DEBUG_STATS_RL:         GsNm1 (THERMODYNAMICS) S.D.=  0.00000000000000E+00
(PID.TID 0000.0001)  MDS_WRITE_FIELD: it,rec,kS,kL,kH=       1     3   1   1   1 file=m_sst_step.0000000001
(PID.TID 0000.0001)  MDS_READ_FIELD: opening global file: xx_atemp.effective.0000000001.data
(PID.TID 0000.0001) EXF_SET_FLD: processing field "climsss",  file: SSS_monthly.labsea1979
(PID.TID 0000.0001) EXF_SET_FLD:   myIter, count0, count1:         2      1      2
(PID.TID 0000.0001) EXF_SET_FLD:   first, changed, fac:   F   F    0.49726775956284153
(PID.TID 0000.0001) EXF_SET_FLD: processing field "uwind",  file: u10m.labsea1979
(PID.TID 0000.0001) EXF_SET_FLD:   myIter, count0, count1:         2      1      2
(PID.TID 0000.0001) EXF_SET_FLD:   first, changed, fac:   F   F    0.49726775956284153
(PID.TID 0000.0001) EXF_SET_FLD: processing field "vwind",  file: v10m.labsea1979
(PID.TID 0000.0001) EXF_SET_FLD:   myIter, count0, count1:         2      1      2
(PID.TID 0000.0001) EXF_SET_FLD:   first, changed, fac:   F   F    0.49726775956284153
(PID.TID 0000.0001) EXF_SET_FLD: processing field "atemp",  file: tair.labsea1979
(PID.TID 0000.0001) EXF_SET_FLD:   myIter, count0, count1:         2      1      2
(PID.TID 0000.0001) EXF_SET_FLD:   first, changed, fac:   F   F    0.49726775956284153
(PID.TID 0000.0001) EXF_SET_FLD: processing field "aqh",  file: qa.labsea1979
(PID.TID 0000.0001) EXF_SET_FLD:   myIter, count0, count1:         2      1      2
(PID.TID 0000.0001) EXF_SET_FLD:   first, changed, fac:   F   F    0.49726775956284153
(PID.TID 0000.0001) EXF_SET_FLD: processing field "precip",  file: prate.labsea1979
(PID.TID 0000.0001) EXF_SET_FLD:   myIter, count0, count1:         2      1      2
(PID.TID 0000.0001) EXF_SET_FLD:   first, changed, fac:   F   F    0.49726775956284153
(PID.TID 0000.0001) EXF_SET_FLD: processing field "swdown",  file: fsh.labsea1979
(PID.TID 0000.0001) EXF_SET_FLD:   myIter, count0, count1:         2      1      2
(PID.TID 0000.0001) EXF_SET_FLD:   first, changed, fac:   F   F    0.49726775956284153
(PID.TID 0000.0001) EXF_SET_FLD: processing field "lwdown",  file: flo.labsea1979
(PID.TID 0000.0001) EXF_SET_FLD:   myIter, count0, count1:         2      1      2
(PID.TID 0000.0001) EXF_SET_FLD:   first, changed, fac:   F   F    0.49726775956284153
DEBUG_STATS_RL: Uice pre  iter (SEAICE_LSR  1)  min= -2.72590911190448E-03
DEBUG_STATS_RL: Uice pre  iter (SEAICE_LSR  1)  max=  1.84821888363614E-01
DEBUG_STATS_RL: Uice pre  iter (SEAICE_LSR  1) mean=  4.43171854917466E-02
DEBUG_STATS_RL: Uice pre  iter (SEAICE_LSR  1) S.D.=  5.55969094951717E-02
DEBUG_STATS_RL: Vice pre  iter (SEAICE_LSR  1)  min= -3.16987209121493E-02
DEBUG_STATS_RL: Vice pre  iter (SEAICE_LSR  1)  max=  6.25866618672353E-02
DEBUG_STATS_RL: Vice pre  iter (SEAICE_LSR  1) mean= -5.92146683099748E-03
DEBUG_STATS_RL: Vice pre  iter (SEAICE_LSR  1) S.D.=  1.77615498821582E-02
DEBUG_STATS_RL: Uice pre  iter (SEAICE_LSR  2)  min= -3.50206878134858E-03
DEBUG_STATS_RL: Uice pre  iter (SEAICE_LSR  2)  max=  1.92025155896599E-01
DEBUG_STATS_RL: Uice pre  iter (SEAICE_LSR  2) mean=  5.29589963329677E-02
DEBUG_STATS_RL: Uice pre  iter (SEAICE_LSR  2) S.D.=  5.86189159299330E-02
DEBUG_STATS_RL: Vice pre  iter (SEAICE_LSR  2)  min= -6.12456112266933E-02
DEBUG_STATS_RL: Vice pre  iter (SEAICE_LSR  2)  max=  9.55317561460542E-02
DEBUG_STATS_RL: Vice pre  iter (SEAICE_LSR  2) mean= -1.11523016934089E-02
DEBUG_STATS_RL: Vice pre  iter (SEAICE_LSR  2) S.D.=  2.73762100036803E-02
DEBUG_STATS_RL:                EtaN (DYNAMICS)  min= -1.28344439274984E-01
DEBUG_STATS_RL:                EtaN (DYNAMICS)  max=  2.88598696737277E-01
DEBUG_STATS_RL:                EtaN (DYNAMICS) mean= -1.59051448133897E-03
DEBUG_STATS_RL:                EtaN (DYNAMICS) S.D.=  6.75540369544810E-02
DEBUG_STATS_RL:                Uvel (DYNAMICS)  min= -4.02432897586627E-02
DEBUG_STATS_RL:                Uvel (DYNAMICS)  max=  3.23458159885842E-02
DEBUG_STATS_RL:                Uvel (DYNAMICS) mean=  6.75465330203110E-04
DEBUG_STATS_RL:                Uvel (DYNAMICS) S.D.=  7.33761384667195E-03
DEBUG_STATS_RL:                Vvel (DYNAMICS)  min= -1.64862319058734E-02
DEBUG_STATS_RL:                Vvel (DYNAMICS)  max=  4.21759382970969E-02
DEBUG_STATS_RL:                Vvel (DYNAMICS) mean=  1.82858022907681E-03
DEBUG_STATS_RL:                Vvel (DYNAMICS) S.D.=  8.08424055894250E-03
DEBUG_STATS_RL:                Wvel (DYNAMICS)  min= -6.56490529174637E-05
DEBUG_STATS_RL:                Wvel (DYNAMICS)  max=  1.68683217295638E-04
DEBUG_STATS_RL:                Wvel (DYNAMICS) mean= -4.30739495111251E-07
DEBUG_STATS_RL:                Wvel (DYNAMICS) S.D.=  1.89945067258317E-05
DEBUG_STATS_RL:               Theta (DYNAMICS)  min= -1.83156742552816E+00
DEBUG_STATS_RL:               Theta (DYNAMICS)  max=  1.32606612249659E+01
DEBUG_STATS_RL:               Theta (DYNAMICS) mean=  2.43057765558689E+00
DEBUG_STATS_RL:               Theta (DYNAMICS) S.D.=  2.55246643542934E+00
DEBUG_STATS_RL:                Salt (DYNAMICS)  min=  2.76092906345221E+01
DEBUG_STATS_RL:                Salt (DYNAMICS)  max=  3.54509236522671E+01
DEBUG_STATS_RL:                Salt (DYNAMICS) mean=  3.39413044254425E+01
DEBUG_STATS_RL:                Salt (DYNAMICS) S.D.=  1.14495872836736E+00
DEBUG_STATS_RL:                  Gu (DYNAMICS)  min= -3.23510557472015E-02
DEBUG_STATS_RL:                  Gu (DYNAMICS)  max=  5.80377411255941E-02
DEBUG_STATS_RL:                  Gu (DYNAMICS) mean= -2.97572069534623E-04
DEBUG_STATS_RL:                  Gu (DYNAMICS) S.D.=  9.92934455351768E-03
DEBUG_STATS_RL:                  Gv (DYNAMICS)  min= -4.01882757136257E-02
DEBUG_STATS_RL:                  Gv (DYNAMICS)  max=  3.49568132071786E-02
DEBUG_STATS_RL:                  Gv (DYNAMICS) mean= -2.47632966121490E-03
DEBUG_STATS_RL:                  Gv (DYNAMICS) S.D.=  9.60357312382229E-03
DEBUG_STATS_RL:               GuNm1 (DYNAMICS)  min= -2.64915263690508E-07
DEBUG_STATS_RL:               GuNm1 (DYNAMICS)  max=  1.75889100747608E-07
DEBUG_STATS_RL:               GuNm1 (DYNAMICS) mean=  2.42191647085853E-09
DEBUG_STATS_RL:               GuNm1 (DYNAMICS) S.D.=  4.49076324942888E-08
DEBUG_STATS_RL:               GvNm1 (DYNAMICS)  min= -8.47298200120191E-08
DEBUG_STATS_RL:               GvNm1 (DYNAMICS)  max=  7.67749697778803E-08
DEBUG_STATS_RL:               GvNm1 (DYNAMICS) mean= -4.71533361261319E-10
DEBUG_STATS_RL:               GvNm1 (DYNAMICS) S.D.=  2.04113373444370E-08
DEBUG_STATS_RL:               GtNm1 (DYNAMICS)  min=  0.00000000000000E+00
DEBUG_STATS_RL:               GtNm1 (DYNAMICS)  max=  0.00000000000000E+00
DEBUG_STATS_RL:               GtNm1 (DYNAMICS) mean=  0.00000000000000E+00
DEBUG_STATS_RL:               GtNm1 (DYNAMICS) S.D.=  0.00000000000000E+00
DEBUG_STATS_RL:               GsNm1 (DYNAMICS)  min=  0.00000000000000E+00
DEBUG_STATS_RL:               GsNm1 (DYNAMICS)  max=  0.00000000000000E+00
DEBUG_STATS_RL:               GsNm1 (DYNAMICS) mean=  0.00000000000000E+00
DEBUG_STATS_RL:               GsNm1 (DYNAMICS) S.D.=  0.00000000000000E+00
DEBUG_STATS_RL:    cg2d_b (SOLVE_FOR_PRESSURE)  min= -7.51696131718223E+03
DEBUG_STATS_RL:    cg2d_b (SOLVE_FOR_PRESSURE)  max=  2.21291016221070E+03
DEBUG_STATS_RL:    cg2d_b (SOLVE_FOR_PRESSURE) mean=  3.97524975899917E-13
DEBUG_STATS_RL:    cg2d_b (SOLVE_FOR_PRESSURE) S.D.=  9.35355930257131E+02
 cg2d: Sum(rhs),rhsMax =   9.28770949037983E-15  1.20985040186715E+00
DEBUG_STATS_RL:    cg2d_x (SOLVE_FOR_PRESSURE)  min= -1.39137659519149E+00
DEBUG_STATS_RL:    cg2d_x (SOLVE_FOR_PRESSURE)  max=  3.06244143644290E+00
DEBUG_STATS_RL:    cg2d_x (SOLVE_FOR_PRESSURE) mean= -2.04738907198934E-02
DEBUG_STATS_RL:    cg2d_x (SOLVE_FOR_PRESSURE) S.D.=  7.54254787473609E-01
DEBUG_STATS_RL:          Uvel (THERMODYNAMICS)  min= -4.85747443135267E-02
DEBUG_STATS_RL:          Uvel (THERMODYNAMICS)  max=  6.48566534974163E-02
DEBUG_STATS_RL:          Uvel (THERMODYNAMICS) mean=  2.83347825459790E-03
DEBUG_STATS_RL:          Uvel (THERMODYNAMICS) S.D.=  1.04406948546683E-02
DEBUG_STATS_RL:          Vvel (THERMODYNAMICS)  min= -2.93630589507367E-02
DEBUG_STATS_RL:          Vvel (THERMODYNAMICS)  max=  5.51081422495771E-02
DEBUG_STATS_RL:          Vvel (THERMODYNAMICS) mean=  1.89398823345611E-03
DEBUG_STATS_RL:          Vvel (THERMODYNAMICS) S.D.=  1.13685531753103E-02
DEBUG_STATS_RL:          Wvel (THERMODYNAMICS)  min= -1.01835019199992E-04
DEBUG_STATS_RL:          Wvel (THERMODYNAMICS)  max=  2.18299385766761E-04
DEBUG_STATS_RL:          Wvel (THERMODYNAMICS) mean= -3.58449213336123E-07
DEBUG_STATS_RL:          Wvel (THERMODYNAMICS) S.D.=  2.04428902649898E-05
DEBUG_STATS_RL:         Theta (THERMODYNAMICS)  min= -1.93250363389783E+00
DEBUG_STATS_RL:         Theta (THERMODYNAMICS)  max=  1.32631363173882E+01
DEBUG_STATS_RL:         Theta (THERMODYNAMICS) mean=  2.41867029854828E+00
DEBUG_STATS_RL:         Theta (THERMODYNAMICS) S.D.=  2.57126546321788E+00
DEBUG_STATS_RL:          Salt (THERMODYNAMICS)  min=  2.76143299539290E+01
DEBUG_STATS_RL:          Salt (THERMODYNAMICS)  max=  3.54510577106203E+01
DEBUG_STATS_RL:          Salt (THERMODYNAMICS) mean=  3.39375783473295E+01
DEBUG_STATS_RL:          Salt (THERMODYNAMICS) S.D.=  1.15271478316334E+00
DEBUG_STATS_RL:         GtNm1 (THERMODYNAMICS)  min=  0.00000000000000E+00
DEBUG_STATS_RL:         GtNm1 (THERMODYNAMICS)  max=  0.00000000000000E+00
DEBUG_STATS_RL:         GtNm1 (THERMODYNAMICS) mean=  0.00000000000000E+00
DEBUG_STATS_RL:         GtNm1 (THERMODYNAMICS) S.D.=  0.00000000000000E+00
DEBUG_STATS_RL:         GsNm1 (THERMODYNAMICS)  min=  0.00000000000000E+00
DEBUG_STATS_RL:         GsNm1 (THERMODYNAMICS)  max=  0.00000000000000E+00
DEBUG_STATS_RL:         GsNm1 (THERMODYNAMICS) mean=  0.00000000000000E+00
DEBUG_STATS_RL:         GsNm1 (THERMODYNAMICS) S.D.=  0.00000000000000E+00
(PID.TID 0000.0001)  MDS_WRITE_FIELD: it,rec,kS,kL,kH=       1     4   1   1   1 file=m_sst_step.0000000001
(PID.TID 0000.0001)  MDS_READ_FIELD: opening global file: xx_atemp.effective.0000000001.data
(PID.TID 0000.0001) EXF_SET_FLD: processing field "climsss",  file: SSS_monthly.labsea1979
(PID.TID 0000.0001) EXF_SET_FLD:   myIter, count0, count1:         3      1      2
(PID.TID 0000.0001) EXF_SET_FLD:   first, changed, fac:   F   F    0.49590163934426235
(PID.TID 0000.0001) EXF_SET_FLD: processing field "uwind",  file: u10m.labsea1979
(PID.TID 0000.0001) EXF_SET_FLD:   myIter, count0, count1:         3      1      2
(PID.TID 0000.0001) EXF_SET_FLD:   first, changed, fac:   F   F    0.49590163934426235
(PID.TID 0000.0001) EXF_SET_FLD: processing field "vwind",  file: v10m.labsea1979
(PID.TID 0000.0001) EXF_SET_FLD:   myIter, count0, count1:         3      1      2
(PID.TID 0000.0001) EXF_SET_FLD:   first, changed, fac:   F   F    0.49590163934426235
(PID.TID 0000.0001) EXF_SET_FLD: processing field "atemp",  file: tair.labsea1979
(PID.TID 0000.0001) EXF_SET_FLD:   myIter, count0, count1:         3      1      2
(PID.TID 0000.0001) EXF_SET_FLD:   first, changed, fac:   F   F    0.49590163934426235
(PID.TID 0000.0001) EXF_SET_FLD: processing field "aqh",  file: qa.labsea1979
(PID.TID 0000.0001) EXF_SET_FLD:   myIter, count0, count1:         3      1      2
(PID.TID 0000.0001) EXF_SET_FLD:   first, changed, fac:   F   F    0.49590163934426235
(PID.TID 0000.0001) EXF_SET_FLD: processing field "precip",  file: prate.labsea1979
(PID.TID 0000.0001) EXF_SET_FLD:   myIter, count0, count1:         3      1      2
(PID.TID 0000.0001) EXF_SET_FLD:   first, changed, fac:   F   F    0.49590163934426235
(PID.TID 0000.0001) EXF_SET_FLD: processing field "swdown",  file: fsh.labsea1979
(PID.TID 0000.0001) EXF_SET_FLD:   myIter, count0, count1:         3      1      2
(PID.TID 0000.0001) EXF_SET_FLD:   first, changed, fac:   F   F    0.49590163934426235
(PID.TID 0000.0001) EXF_SET_FLD: processing field "lwdown",  file: flo.labsea1979
(PID.TID 0000.0001) EXF_SET_FLD:   myIter, count0, count1:         3      1      2
(PID.TID 0000.0001) EXF_SET_FLD:   first, changed, fac:   F   F    0.49590163934426235
DEBUG_STATS_RL: Uice pre  iter (SEAICE_LSR  1)  min= -4.89522325595971E-03
DEBUG_STATS_RL: Uice pre  iter (SEAICE_LSR  1)  max=  1.61355517756085E-01
DEBUG_STATS_RL: Uice pre  iter (SEAICE_LSR  1) mean=  5.67051326036263E-02
DEBUG_STATS_RL: Uice pre  iter (SEAICE_LSR  1) S.D.=  5.73816154995708E-02
DEBUG_STATS_RL: Vice pre  iter (SEAICE_LSR  1)  min= -1.51246540995866E-01
DEBUG_STATS_RL: Vice pre  iter (SEAICE_LSR  1)  max=  8.91076561218491E-02
DEBUG_STATS_RL: Vice pre  iter (SEAICE_LSR  1) mean= -1.97403473772624E-02
DEBUG_STATS_RL: Vice pre  iter (SEAICE_LSR  1) S.D.=  3.94189649072392E-02
DEBUG_STATS_RL: Uice pre  iter (SEAICE_LSR  2)  min= -5.42054480416032E-03
DEBUG_STATS_RL: Uice pre  iter (SEAICE_LSR  2)  max=  2.02641844081809E-01
DEBUG_STATS_RL: Uice pre  iter (SEAICE_LSR  2) mean=  6.47762112260986E-02
DEBUG_STATS_RL: Uice pre  iter (SEAICE_LSR  2) S.D.=  6.71608790533977E-02
DEBUG_STATS_RL: Vice pre  iter (SEAICE_LSR  2)  min= -1.45601126352242E-01
DEBUG_STATS_RL: Vice pre  iter (SEAICE_LSR  2)  max=  1.04145470460116E-01
DEBUG_STATS_RL: Vice pre  iter (SEAICE_LSR  2) mean= -2.31827417443664E-02
DEBUG_STATS_RL: Vice pre  iter (SEAICE_LSR  2) S.D.=  4.33109039414268E-02
DEBUG_STATS_RL:                EtaN (DYNAMICS)  min= -1.41751558253341E-01
DEBUG_STATS_RL:                EtaN (DYNAMICS)  max=  3.11997375243785E-01
DEBUG_STATS_RL:                EtaN (DYNAMICS) mean= -2.08585218630480E-03
DEBUG_STATS_RL:                EtaN (DYNAMICS) S.D.=  7.68424535915897E-02
DEBUG_STATS_RL:                Uvel (DYNAMICS)  min= -4.85747443135267E-02
DEBUG_STATS_RL:                Uvel (DYNAMICS)  max=  6.48566534974163E-02
DEBUG_STATS_RL:                Uvel (DYNAMICS) mean=  2.83347825459790E-03
DEBUG_STATS_RL:                Uvel (DYNAMICS) S.D.=  1.04406948546683E-02
DEBUG_STATS_RL:                Vvel (DYNAMICS)  min= -2.93630589507367E-02
DEBUG_STATS_RL:                Vvel (DYNAMICS)  max=  5.51081422495771E-02
DEBUG_STATS_RL:                Vvel (DYNAMICS) mean=  1.89398823345611E-03
DEBUG_STATS_RL:                Vvel (DYNAMICS) S.D.=  1.13685531753103E-02
DEBUG_STATS_RL:                Wvel (DYNAMICS)  min= -1.01835019199992E-04
DEBUG_STATS_RL:                Wvel (DYNAMICS)  max=  2.18299385766761E-04
DEBUG_STATS_RL:                Wvel (DYNAMICS) mean= -3.58449213336123E-07
DEBUG_STATS_RL:                Wvel (DYNAMICS) S.D.=  2.04428902649898E-05
DEBUG_STATS_RL:               Theta (DYNAMICS)  min= -1.93250363389783E+00
DEBUG_STATS_RL:               Theta (DYNAMICS)  max=  1.32631363173882E+01
DEBUG_STATS_RL:               Theta (DYNAMICS) mean=  2.41867029854828E+00
DEBUG_STATS_RL:               Theta (DYNAMICS) S.D.=  2.57126546321788E+00
DEBUG_STATS_RL:                Salt (DYNAMICS)  min=  2.76143299539290E+01
DEBUG_STATS_RL:                Salt (DYNAMICS)  max=  3.54510577106203E+01
DEBUG_STATS_RL:                Salt (DYNAMICS) mean=  3.39375783473295E+01
DEBUG_STATS_RL:                Salt (DYNAMICS) S.D.=  1.15271478316334E+00
DEBUG_STATS_RL:                  Gu (DYNAMICS)  min= -3.31660092548285E-02
DEBUG_STATS_RL:                  Gu (DYNAMICS)  max=  7.71641715782462E-02
DEBUG_STATS_RL:                  Gu (DYNAMICS) mean=  1.79729889202419E-03
DEBUG_STATS_RL:                  Gu (DYNAMICS) S.D.=  1.23549872720785E-02
DEBUG_STATS_RL:                  Gv (DYNAMICS)  min= -6.51102265940682E-02
DEBUG_STATS_RL:                  Gv (DYNAMICS)  max=  4.74792371894027E-02
DEBUG_STATS_RL:                  Gv (DYNAMICS) mean= -3.61268002205348E-03
DEBUG_STATS_RL:                  Gv (DYNAMICS) S.D.=  1.25565096773784E-02
DEBUG_STATS_RL:               GuNm1 (DYNAMICS)  min= -2.57489899416700E-07
DEBUG_STATS_RL:               GuNm1 (DYNAMICS)  max=  1.89368528479111E-07
DEBUG_STATS_RL:               GuNm1 (DYNAMICS) mean=  4.40117075522645E-12
DEBUG_STATS_RL:               GuNm1 (DYNAMICS) S.D.=  4.68821385830415E-08
DEBUG_STATS_RL:               GvNm1 (DYNAMICS)  min= -1.09603640235130E-07
DEBUG_STATS_RL:               GvNm1 (DYNAMICS)  max=  9.62789262154709E-08
DEBUG_STATS_RL:               GvNm1 (DYNAMICS) mean= -8.49526391150888E-10
DEBUG_STATS_RL:               GvNm1 (DYNAMICS) S.D.=  2.55629549792266E-08
DEBUG_STATS_RL:               GtNm1 (DYNAMICS)  min=  0.00000000000000E+00
DEBUG_STATS_RL:               GtNm1 (DYNAMICS)  max=  0.00000000000000E+00
DEBUG_STATS_RL:               GtNm1 (DYNAMICS) mean=  0.00000000000000E+00
DEBUG_STATS_RL:               GtNm1 (DYNAMICS) S.D.=  0.00000000000000E+00
DEBUG_STATS_RL:               GsNm1 (DYNAMICS)  min=  0.00000000000000E+00
DEBUG_STATS_RL:               GsNm1 (DYNAMICS)  max=  0.00000000000000E+00
DEBUG_STATS_RL:               GsNm1 (DYNAMICS) mean=  0.00000000000000E+00
DEBUG_STATS_RL:               GsNm1 (DYNAMICS) S.D.=  0.00000000000000E+00
DEBUG_STATS_RL:    cg2d_b (SOLVE_FOR_PRESSURE)  min= -7.48820843436667E+03
DEBUG_STATS_RL:    cg2d_b (SOLVE_FOR_PRESSURE)  max=  2.19603477106523E+03
DEBUG_STATS_RL:    cg2d_b (SOLVE_FOR_PRESSURE) mean=  1.95541360881180E-13
DEBUG_STATS_RL:    cg2d_b (SOLVE_FOR_PRESSURE) S.D.=  9.20730314173555E+02
 cg2d: Sum(rhs),rhsMax =   4.12170297892089E-15  1.20522264267545E+00
DEBUG_STATS_RL:    cg2d_x (SOLVE_FOR_PRESSURE)  min= -1.31033012419325E+00
DEBUG_STATS_RL:    cg2d_x (SOLVE_FOR_PRESSURE)  max=  3.14089981024779E+00
DEBUG_STATS_RL:    cg2d_x (SOLVE_FOR_PRESSURE) mean= -2.47876044021442E-02
DEBUG_STATS_RL:    cg2d_x (SOLVE_FOR_PRESSURE) S.D.=  7.62604990072209E-01
DEBUG_STATS_RL:          Uvel (THERMODYNAMICS)  min= -4.51228100181469E-02
DEBUG_STATS_RL:          Uvel (THERMODYNAMICS)  max=  8.23946614698093E-02
DEBUG_STATS_RL:          Uvel (THERMODYNAMICS) mean=  4.46006533351639E-03
DEBUG_STATS_RL:          Uvel (THERMODYNAMICS) S.D.=  1.25503402183571E-02
DEBUG_STATS_RL:          Vvel (THERMODYNAMICS)  min= -5.43131072024749E-02
DEBUG_STATS_RL:          Vvel (THERMODYNAMICS)  max=  6.64710959483315E-02
DEBUG_STATS_RL:          Vvel (THERMODYNAMICS) mean=  9.07394962402755E-04
DEBUG_STATS_RL:          Vvel (THERMODYNAMICS) S.D.=  1.42265213439710E-02
DEBUG_STATS_RL:          Wvel (THERMODYNAMICS)  min= -1.50094143875179E-04
DEBUG_STATS_RL:          Wvel (THERMODYNAMICS)  max=  2.67848367720671E-04
DEBUG_STATS_RL:          Wvel (THERMODYNAMICS) mean= -2.83768310636560E-07
DEBUG_STATS_RL:          Wvel (THERMODYNAMICS) S.D.=  2.30755404976188E-05
DEBUG_STATS_RL:         Theta (THERMODYNAMICS)  min= -1.95323356757650E+00
DEBUG_STATS_RL:         Theta (THERMODYNAMICS)  max=  1.32611729219857E+01
DEBUG_STATS_RL:         Theta (THERMODYNAMICS) mean=  2.41624287435038E+00
DEBUG_STATS_RL:         Theta (THERMODYNAMICS) S.D.=  2.57467251754838E+00
DEBUG_STATS_RL:          Salt (THERMODYNAMICS)  min=  2.76192995644599E+01
DEBUG_STATS_RL:          Salt (THERMODYNAMICS)  max=  3.54511687806856E+01
DEBUG_STATS_RL:          Salt (THERMODYNAMICS) mean=  3.39368869963853E+01
DEBUG_STATS_RL:          Salt (THERMODYNAMICS) S.D.=  1.15395653842379E+00
DEBUG_STATS_RL:         GtNm1 (THERMODYNAMICS)  min=  0.00000000000000E+00
DEBUG_STATS_RL:         GtNm1 (THERMODYNAMICS)  max=  0.00000000000000E+00
DEBUG_STATS_RL:         GtNm1 (THERMODYNAMICS) mean=  0.00000000000000E+00
DEBUG_STATS_RL:         GtNm1 (THERMODYNAMICS) S.D.=  0.00000000000000E+00
DEBUG_STATS_RL:         GsNm1 (THERMODYNAMICS)  min=  0.00000000000000E+00
DEBUG_STATS_RL:         GsNm1 (THERMODYNAMICS)  max=  0.00000000000000E+00
DEBUG_STATS_RL:         GsNm1 (THERMODYNAMICS) mean=  0.00000000000000E+00
DEBUG_STATS_RL:         GsNm1 (THERMODYNAMICS) S.D.=  0.00000000000000E+00
(PID.TID 0000.0001)  MDS_WRITE_FIELD: it,rec,kS,kL,kH=       1     5   1   1   1 file=m_sst_step.0000000001
(PID.TID 0000.0001)  MDS_READ_FIELD: opening global file: xx_atemp.effective.0000000001.data
(PID.TID 0000.0001) EXF_SET_FLD: processing field "climsss",  file: SSS_monthly.labsea1979
(PID.TID 0000.0001) EXF_SET_FLD:   myIter, count0, count1:         4      1      2
(PID.TID 0000.0001) EXF_SET_FLD:   first, changed, fac:   F   F    0.49453551912568305
(PID.TID 0000.0001) EXF_SET_FLD: processing field "uwind",  file: u10m.labsea1979
(PID.TID 0000.0001) EXF_SET_FLD:   myIter, count0, count1:         4      1      2
(PID.TID 0000.0001) EXF_SET_FLD:   first, changed, fac:   F   F    0.49453551912568305
(PID.TID 0000.0001) EXF_SET_FLD: processing field "vwind",  file: v10m.labsea1979
(PID.TID 0000.0001) EXF_SET_FLD:   myIter, count0, count1:         4      1      2
(PID.TID 0000.0001) EXF_SET_FLD:   first, changed, fac:   F   F    0.49453551912568305
(PID.TID 0000.0001) EXF_SET_FLD: processing field "atemp",  file: tair.labsea1979
(PID.TID 0000.0001) EXF_SET_FLD:   myIter, count0, count1:         4      1      2
(PID.TID 0000.0001) EXF_SET_FLD:   first, changed, fac:   F   F    0.49453551912568305
(PID.TID 0000.0001) EXF_SET_FLD: processing field "aqh",  file: qa.labsea1979
(PID.TID 0000.0001) EXF_SET_FLD:   myIter, count0, count1:         4      1      2
(PID.TID 0000.0001) EXF_SET_FLD:   first, changed, fac:   F   F    0.49453551912568305
(PID.TID 0000.0001) EXF_SET_FLD: processing field "precip",  file: prate.labsea1979
(PID.TID 0000.0001) EXF_SET_FLD:   myIter, count0, count1:         4      1      2
(PID.TID 0000.0001) EXF_SET_FLD:   first, changed, fac:   F   F    0.49453551912568305
(PID.TID 0000.0001) EXF_SET_FLD: processing field "swdown",  file: fsh.labsea1979
(PID.TID 0000.0001) EXF_SET_FLD:   myIter, count0, count1:         4      1      2
(PID.TID 0000.0001) EXF_SET_FLD:   first, changed, fac:   F   F    0.49453551912568305
(PID.TID 0000.0001) EXF_SET_FLD: processing field "lwdown",  file: flo.labsea1979
(PID.TID 0000.0001) EXF_SET_FLD:   myIter, count0, count1:         4      1      2
(PID.TID 0000.0001) EXF_SET_FLD:   first, changed, fac:   F   F    0.49453551912568305
DEBUG_STATS_RL: Uice pre  iter (SEAICE_LSR  1)  min= -6.64884179984694E-03
DEBUG_STATS_RL: Uice pre  iter (SEAICE_LSR  1)  max=  1.92542735136310E-01
DEBUG_STATS_RL: Uice pre  iter (SEAICE_LSR  1) mean=  6.47686246164122E-02
DEBUG_STATS_RL: Uice pre  iter (SEAICE_LSR  1) S.D.=  6.59732959910663E-02
DEBUG_STATS_RL: Vice pre  iter (SEAICE_LSR  1)  min= -1.58345599530579E-01
DEBUG_STATS_RL: Vice pre  iter (SEAICE_LSR  1)  max=  1.04255589228156E-01
DEBUG_STATS_RL: Vice pre  iter (SEAICE_LSR  1) mean= -2.61122078454101E-02
DEBUG_STATS_RL: Vice pre  iter (SEAICE_LSR  1) S.D.=  4.54292968521326E-02
DEBUG_STATS_RL: Uice pre  iter (SEAICE_LSR  2)  min= -7.39582706169945E-03
DEBUG_STATS_RL: Uice pre  iter (SEAICE_LSR  2)  max=  2.22032103672184E-01
DEBUG_STATS_RL: Uice pre  iter (SEAICE_LSR  2) mean=  6.99701895634077E-02
DEBUG_STATS_RL: Uice pre  iter (SEAICE_LSR  2) S.D.=  7.26089122440814E-02
DEBUG_STATS_RL: Vice pre  iter (SEAICE_LSR  2)  min= -1.71770480186532E-01
DEBUG_STATS_RL: Vice pre  iter (SEAICE_LSR  2)  max=  1.08496327276560E-01
DEBUG_STATS_RL: Vice pre  iter (SEAICE_LSR  2) mean= -3.10609864818449E-02
DEBUG_STATS_RL: Vice pre  iter (SEAICE_LSR  2) S.D.=  4.99863315302050E-02
DEBUG_STATS_RL:                EtaN (DYNAMICS)  min= -1.33494653836062E-01
DEBUG_STATS_RL:                EtaN (DYNAMICS)  max=  3.19990607833223E-01
DEBUG_STATS_RL:                EtaN (DYNAMICS) mean= -2.52532747892583E-03
DEBUG_STATS_RL:                EtaN (DYNAMICS) S.D.=  7.76931608941082E-02
DEBUG_STATS_RL:                Uvel (DYNAMICS)  min= -4.51228100181469E-02
DEBUG_STATS_RL:                Uvel (DYNAMICS)  max=  8.23946614698093E-02
DEBUG_STATS_RL:                Uvel (DYNAMICS) mean=  4.46006533351639E-03
DEBUG_STATS_RL:                Uvel (DYNAMICS) S.D.=  1.25503402183571E-02
DEBUG_STATS_RL:                Vvel (DYNAMICS)  min= -5.43131072024749E-02
DEBUG_STATS_RL:                Vvel (DYNAMICS)  max=  6.64710959483315E-02
DEBUG_STATS_RL:                Vvel (DYNAMICS) mean=  9.07394962402755E-04
DEBUG_STATS_RL:                Vvel (DYNAMICS) S.D.=  1.42265213439710E-02
DEBUG_STATS_RL:                Wvel (DYNAMICS)  min= -1.50094143875179E-04
DEBUG_STATS_RL:                Wvel (DYNAMICS)  max=  2.67848367720671E-04
DEBUG_STATS_RL:                Wvel (DYNAMICS) mean= -2.83768310636560E-07
DEBUG_STATS_RL:                Wvel (DYNAMICS) S.D.=  2.30755404976188E-05
DEBUG_STATS_RL:               Theta (DYNAMICS)  min= -1.95323356757650E+00
DEBUG_STATS_RL:               Theta (DYNAMICS)  max=  1.32611729219857E+01
DEBUG_STATS_RL:               Theta (DYNAMICS) mean=  2.41624287435038E+00
DEBUG_STATS_RL:               Theta (DYNAMICS) S.D.=  2.57467251754838E+00
DEBUG_STATS_RL:                Salt (DYNAMICS)  min=  2.76192995644599E+01
DEBUG_STATS_RL:                Salt (DYNAMICS)  max=  3.54511687806856E+01
DEBUG_STATS_RL:                Salt (DYNAMICS) mean=  3.39368869963853E+01
DEBUG_STATS_RL:                Salt (DYNAMICS) S.D.=  1.15395653842379E+00
DEBUG_STATS_RL:                  Gu (DYNAMICS)  min= -3.06969616935835E-02
DEBUG_STATS_RL:                  Gu (DYNAMICS)  max=  9.72073114926352E-02
DEBUG_STATS_RL:                  Gu (DYNAMICS) mean=  3.10151082316825E-03
DEBUG_STATS_RL:                  Gu (DYNAMICS) S.D.=  1.41052551008810E-02
DEBUG_STATS_RL:                  Gv (DYNAMICS)  min= -9.53132079814136E-02
DEBUG_STATS_RL:                  Gv (DYNAMICS)  max=  5.33682068181783E-02
DEBUG_STATS_RL:                  Gv (DYNAMICS) mean= -5.06243016753697E-03
DEBUG_STATS_RL:                  Gv (DYNAMICS) S.D.=  1.53588463679428E-02
DEBUG_STATS_RL:               GuNm1 (DYNAMICS)  min= -2.35357489189874E-07
DEBUG_STATS_RL:               GuNm1 (DYNAMICS)  max=  1.71456102315334E-07
DEBUG_STATS_RL:               GuNm1 (DYNAMICS) mean= -2.01481983921334E-09
DEBUG_STATS_RL:               GuNm1 (DYNAMICS) S.D.=  4.45062316312252E-08
DEBUG_STATS_RL:               GvNm1 (DYNAMICS)  min= -1.49109605789097E-07
DEBUG_STATS_RL:               GvNm1 (DYNAMICS)  max=  1.05797935490741E-07
DEBUG_STATS_RL:               GvNm1 (DYNAMICS) mean= -1.04937902583635E-09
DEBUG_STATS_RL:               GvNm1 (DYNAMICS) S.D.=  3.09410614930005E-08
DEBUG_STATS_RL:               GtNm1 (DYNAMICS)  min=  0.00000000000000E+00
DEBUG_STATS_RL:               GtNm1 (DYNAMICS)  max=  0.00000000000000E+00
DEBUG_STATS_RL:               GtNm1 (DYNAMICS) mean=  0.00000000000000E+00
DEBUG_STATS_RL:               GtNm1 (DYNAMICS) S.D.=  0.00000000000000E+00
DEBUG_STATS_RL:               GsNm1 (DYNAMICS)  min=  0.00000000000000E+00
DEBUG_STATS_RL:               GsNm1 (DYNAMICS)  max=  0.00000000000000E+00
DEBUG_STATS_RL:               GsNm1 (DYNAMICS) mean=  0.00000000000000E+00
DEBUG_STATS_RL:               GsNm1 (DYNAMICS) S.D.=  0.00000000000000E+00
DEBUG_STATS_RL:    cg2d_b (SOLVE_FOR_PRESSURE)  min= -7.47095948274136E+03
DEBUG_STATS_RL:    cg2d_b (SOLVE_FOR_PRESSURE)  max=  2.18029189648852E+03
DEBUG_STATS_RL:    cg2d_b (SOLVE_FOR_PRESSURE) mean=  1.60677397313217E-13
DEBUG_STATS_RL:    cg2d_b (SOLVE_FOR_PRESSURE) S.D.=  9.11464014140204E+02
 cg2d: Sum(rhs),rhsMax =   3.41393580072236E-15  1.20244643428816E+00
DEBUG_STATS_RL:    cg2d_x (SOLVE_FOR_PRESSURE)  min= -1.27317826454503E+00
DEBUG_STATS_RL:    cg2d_x (SOLVE_FOR_PRESSURE)  max=  3.19622316797497E+00
DEBUG_STATS_RL:    cg2d_x (SOLVE_FOR_PRESSURE) mean= -2.95294169354970E-02
DEBUG_STATS_RL:    cg2d_x (SOLVE_FOR_PRESSURE) S.D.=  7.40273720372698E-01
DEBUG_STATS_RL:          Uvel (THERMODYNAMICS)  min= -3.64296443203895E-02
DEBUG_STATS_RL:          Uvel (THERMODYNAMICS)  max=  8.91662112566486E-02
DEBUG_STATS_RL:          Uvel (THERMODYNAMICS) mean=  5.18186102505167E-03
DEBUG_STATS_RL:          Uvel (THERMODYNAMICS) S.D.=  1.36791834404098E-02
DEBUG_STATS_RL:          Vvel (THERMODYNAMICS)  min= -8.48427067731678E-02
DEBUG_STATS_RL:          Vvel (THERMODYNAMICS)  max=  7.15709637633456E-02
DEBUG_STATS_RL:          Vvel (THERMODYNAMICS) mean= -6.25663991256199E-04
DEBUG_STATS_RL:          Vvel (THERMODYNAMICS) S.D.=  1.65568599029643E-02
DEBUG_STATS_RL:          Wvel (THERMODYNAMICS)  min= -2.02998023749471E-04
DEBUG_STATS_RL:          Wvel (THERMODYNAMICS)  max=  3.07634744219597E-04
DEBUG_STATS_RL:          Wvel (THERMODYNAMICS) mean= -2.14485636604590E-07
DEBUG_STATS_RL:          Wvel (THERMODYNAMICS) S.D.=  2.56514188295226E-05
DEBUG_STATS_RL:         Theta (THERMODYNAMICS)  min= -1.95891909892377E+00
DEBUG_STATS_RL:         Theta (THERMODYNAMICS)  max=  1.32575107273066E+01
DEBUG_STATS_RL:         Theta (THERMODYNAMICS) mean=  2.41560973729717E+00
DEBUG_STATS_RL:         Theta (THERMODYNAMICS) S.D.=  2.57506629522921E+00
DEBUG_STATS_RL:          Salt (THERMODYNAMICS)  min=  2.76241835718781E+01
DEBUG_STATS_RL:          Salt (THERMODYNAMICS)  max=  3.54512322319690E+01
DEBUG_STATS_RL:          Salt (THERMODYNAMICS) mean=  3.39367610972818E+01
DEBUG_STATS_RL:          Salt (THERMODYNAMICS) S.D.=  1.15400523729929E+00
DEBUG_STATS_RL:         GtNm1 (THERMODYNAMICS)  min=  0.00000000000000E+00
DEBUG_STATS_RL:         GtNm1 (THERMODYNAMICS)  max=  0.00000000000000E+00
DEBUG_STATS_RL:         GtNm1 (THERMODYNAMICS) mean=  0.00000000000000E+00
DEBUG_STATS_RL:         GtNm1 (THERMODYNAMICS) S.D.=  0.00000000000000E+00
DEBUG_STATS_RL:         GsNm1 (THERMODYNAMICS)  min=  0.00000000000000E+00
DEBUG_STATS_RL:         GsNm1 (THERMODYNAMICS)  max=  0.00000000000000E+00
DEBUG_STATS_RL:         GsNm1 (THERMODYNAMICS) mean=  0.00000000000000E+00
DEBUG_STATS_RL:         GsNm1 (THERMODYNAMICS) S.D.=  0.00000000000000E+00
(PID.TID 0000.0001)  MDS_WRITE_FIELD: it,rec,kS,kL,kH=       1     6   1   1   1 file=m_sst_step.0000000001
(PID.TID 0000.0001)  MDS_READ_FIELD: opening global file: xx_atemp.effective.0000000001.data
(PID.TID 0000.0001) EXF_SET_FLD: processing field "climsss",  file: SSS_monthly.labsea1979
(PID.TID 0000.0001) EXF_SET_FLD:   myIter, count0, count1:         5      1      2
(PID.TID 0000.0001) EXF_SET_FLD:   first, changed, fac:   F   F    0.49316939890710387
(PID.TID 0000.0001) EXF_SET_FLD: processing field "uwind",  file: u10m.labsea1979
(PID.TID 0000.0001) EXF_SET_FLD:   myIter, count0, count1:         5      1      2
(PID.TID 0000.0001) EXF_SET_FLD:   first, changed, fac:   F   F    0.49316939890710387
(PID.TID 0000.0001) EXF_SET_FLD: processing field "vwind",  file: v10m.labsea1979
(PID.TID 0000.0001) EXF_SET_FLD:   myIter, count0, count1:         5      1      2
(PID.TID 0000.0001) EXF_SET_FLD:   first, changed, fac:   F   F    0.49316939890710387
(PID.TID 0000.0001) EXF_SET_FLD: processing field "atemp",  file: tair.labsea1979
(PID.TID 0000.0001) EXF_SET_FLD:   myIter, count0, count1:         5      1      2
(PID.TID 0000.0001) EXF_SET_FLD:   first, changed, fac:   F   F    0.49316939890710387
(PID.TID 0000.0001) EXF_SET_FLD: processing field "aqh",  file: qa.labsea1979
(PID.TID 0000.0001) EXF_SET_FLD:   myIter, count0, count1:         5      1      2
(PID.TID 0000.0001) EXF_SET_FLD:   first, changed, fac:   F   F    0.49316939890710387
(PID.TID 0000.0001) EXF_SET_FLD: processing field "precip",  file: prate.labsea1979
(PID.TID 0000.0001) EXF_SET_FLD:   myIter, count0, count1:         5      1      2
(PID.TID 0000.0001) EXF_SET_FLD:   first, changed, fac:   F   F    0.49316939890710387
(PID.TID 0000.0001) EXF_SET_FLD: processing field "swdown",  file: fsh.labsea1979
(PID.TID 0000.0001) EXF_SET_FLD:   myIter, count0, count1:         5      1      2
(PID.TID 0000.0001) EXF_SET_FLD:   first, changed, fac:   F   F    0.49316939890710387
(PID.TID 0000.0001) EXF_SET_FLD: processing field "lwdown",  file: flo.labsea1979
(PID.TID 0000.0001) EXF_SET_FLD:   myIter, count0, count1:         5      1      2
(PID.TID 0000.0001) EXF_SET_FLD:   first, changed, fac:   F   F    0.49316939890710387
DEBUG_STATS_RL: Uice pre  iter (SEAICE_LSR  1)  min= -9.02121933428475E-03
DEBUG_STATS_RL: Uice pre  iter (SEAICE_LSR  1)  max=  2.19445684647109E-01
DEBUG_STATS_RL: Uice pre  iter (SEAICE_LSR  1) mean=  6.96639305502872E-02
DEBUG_STATS_RL: Uice pre  iter (SEAICE_LSR  1) S.D.=  7.25590715280867E-02
DEBUG_STATS_RL: Vice pre  iter (SEAICE_LSR  1)  min= -1.73112057819574E-01
DEBUG_STATS_RL: Vice pre  iter (SEAICE_LSR  1)  max=  1.05174802576009E-01
DEBUG_STATS_RL: Vice pre  iter (SEAICE_LSR  1) mean= -3.44957645455292E-02
DEBUG_STATS_RL: Vice pre  iter (SEAICE_LSR  1) S.D.=  5.17027322843368E-02
DEBUG_STATS_RL: Uice pre  iter (SEAICE_LSR  2)  min= -9.93295031152555E-03
DEBUG_STATS_RL: Uice pre  iter (SEAICE_LSR  2)  max=  2.37649472779152E-01
DEBUG_STATS_RL: Uice pre  iter (SEAICE_LSR  2) mean=  7.08960993523159E-02
DEBUG_STATS_RL: Uice pre  iter (SEAICE_LSR  2) S.D.=  7.51814019584464E-02
DEBUG_STATS_RL: Vice pre  iter (SEAICE_LSR  2)  min= -1.73458139241630E-01
DEBUG_STATS_RL: Vice pre  iter (SEAICE_LSR  2)  max=  1.02503634704983E-01
DEBUG_STATS_RL: Vice pre  iter (SEAICE_LSR  2) mean= -3.89801386768921E-02
DEBUG_STATS_RL: Vice pre  iter (SEAICE_LSR  2) S.D.=  5.44920749396392E-02
DEBUG_STATS_RL:                EtaN (DYNAMICS)  min= -1.29709672821329E-01
DEBUG_STATS_RL:                EtaN (DYNAMICS)  max=  3.25626876398281E-01
DEBUG_STATS_RL:                EtaN (DYNAMICS) mean= -3.00841690120797E-03
DEBUG_STATS_RL:                EtaN (DYNAMICS) S.D.=  7.54180814593808E-02
DEBUG_STATS_RL:                Uvel (DYNAMICS)  min= -3.64296443203895E-02
DEBUG_STATS_RL:                Uvel (DYNAMICS)  max=  8.91662112566486E-02
DEBUG_STATS_RL:                Uvel (DYNAMICS) mean=  5.18186102505167E-03
DEBUG_STATS_RL:                Uvel (DYNAMICS) S.D.=  1.36791834404098E-02
DEBUG_STATS_RL:                Vvel (DYNAMICS)  min= -8.48427067731678E-02
DEBUG_STATS_RL:                Vvel (DYNAMICS)  max=  7.15709637633456E-02
DEBUG_STATS_RL:                Vvel (DYNAMICS) mean= -6.25663991256199E-04
DEBUG_STATS_RL:                Vvel (DYNAMICS) S.D.=  1.65568599029643E-02
DEBUG_STATS_RL:                Wvel (DYNAMICS)  min= -2.02998023749471E-04
DEBUG_STATS_RL:                Wvel (DYNAMICS)  max=  3.07634744219597E-04
DEBUG_STATS_RL:                Wvel (DYNAMICS) mean= -2.14485636604590E-07
DEBUG_STATS_RL:                Wvel (DYNAMICS) S.D.=  2.56514188295226E-05
DEBUG_STATS_RL:               Theta (DYNAMICS)  min= -1.95891909892377E+00
DEBUG_STATS_RL:               Theta (DYNAMICS)  max=  1.32575107273066E+01
DEBUG_STATS_RL:               Theta (DYNAMICS) mean=  2.41560973729717E+00
DEBUG_STATS_RL:               Theta (DYNAMICS) S.D.=  2.57506629522921E+00
DEBUG_STATS_RL:                Salt (DYNAMICS)  min=  2.76241835718781E+01
DEBUG_STATS_RL:                Salt (DYNAMICS)  max=  3.54512322319690E+01
DEBUG_STATS_RL:                Salt (DYNAMICS) mean=  3.39367610972818E+01
DEBUG_STATS_RL:                Salt (DYNAMICS) S.D.=  1.15400523729929E+00
DEBUG_STATS_RL:                  Gu (DYNAMICS)  min= -3.40661284888800E-02
DEBUG_STATS_RL:                  Gu (DYNAMICS)  max=  1.09592409505602E-01
DEBUG_STATS_RL:                  Gu (DYNAMICS) mean=  3.43340148230728E-03
DEBUG_STATS_RL:                  Gu (DYNAMICS) S.D.=  1.52106643071039E-02
DEBUG_STATS_RL:                  Gv (DYNAMICS)  min= -1.19743996000587E-01
DEBUG_STATS_RL:                  Gv (DYNAMICS)  max=  5.31755908727339E-02
DEBUG_STATS_RL:                  Gv (DYNAMICS) mean= -6.43607759845740E-03
DEBUG_STATS_RL:                  Gv (DYNAMICS) S.D.=  1.74595586593390E-02
DEBUG_STATS_RL:               GuNm1 (DYNAMICS)  min= -2.94347299884274E-07
DEBUG_STATS_RL:               GuNm1 (DYNAMICS)  max=  1.78770581560386E-07
DEBUG_STATS_RL:               GuNm1 (DYNAMICS) mean= -3.06311171945422E-09
DEBUG_STATS_RL:               GuNm1 (DYNAMICS) S.D.=  4.19614199163251E-08
DEBUG_STATS_RL:               GvNm1 (DYNAMICS)  min= -1.82273635415875E-07
DEBUG_STATS_RL:               GvNm1 (DYNAMICS)  max=  1.24273330981491E-07
DEBUG_STATS_RL:               GvNm1 (DYNAMICS) mean= -1.05360009952031E-09
DEBUG_STATS_RL:               GvNm1 (DYNAMICS) S.D.=  3.58773704868966E-08
DEBUG_STATS_RL:               GtNm1 (DYNAMICS)  min=  0.00000000000000E+00
DEBUG_STATS_RL:               GtNm1 (DYNAMICS)  max=  0.00000000000000E+00
DEBUG_STATS_RL:               GtNm1 (DYNAMICS) mean=  0.00000000000000E+00
DEBUG_STATS_RL:               GtNm1 (DYNAMICS) S.D.=  0.00000000000000E+00
DEBUG_STATS_RL:               GsNm1 (DYNAMICS)  min=  0.00000000000000E+00
DEBUG_STATS_RL:               GsNm1 (DYNAMICS)  max=  0.00000000000000E+00
DEBUG_STATS_RL:               GsNm1 (DYNAMICS) mean=  0.00000000000000E+00
DEBUG_STATS_RL:               GsNm1 (DYNAMICS) S.D.=  0.00000000000000E+00
DEBUG_STATS_RL:    cg2d_b (SOLVE_FOR_PRESSURE)  min= -7.45833771571426E+03
DEBUG_STATS_RL:    cg2d_b (SOLVE_FOR_PRESSURE)  max=  2.17494903027821E+03
DEBUG_STATS_RL:    cg2d_b (SOLVE_FOR_PRESSURE) mean=  2.91417260693076E-13
DEBUG_STATS_RL:    cg2d_b (SOLVE_FOR_PRESSURE) S.D.=  9.06377010649927E+02
 cg2d: Sum(rhs),rhsMax =   5.83907922013793E-15  1.20041496847829E+00
DEBUG_STATS_RL:    cg2d_x (SOLVE_FOR_PRESSURE)  min= -1.23196163368214E+00
DEBUG_STATS_RL:    cg2d_x (SOLVE_FOR_PRESSURE)  max=  3.23727429689649E+00
DEBUG_STATS_RL:    cg2d_x (SOLVE_FOR_PRESSURE) mean= -3.45194761146668E-02
DEBUG_STATS_RL:    cg2d_x (SOLVE_FOR_PRESSURE) S.D.=  7.10912240392180E-01
DEBUG_STATS_RL:          Uvel (THERMODYNAMICS)  min= -3.59096386964073E-02
DEBUG_STATS_RL:          Uvel (THERMODYNAMICS)  max=  1.01288605318194E-01
DEBUG_STATS_RL:          Uvel (THERMODYNAMICS) mean=  5.06442107691350E-03
DEBUG_STATS_RL:          Uvel (THERMODYNAMICS) S.D.=  1.40087544095651E-02
DEBUG_STATS_RL:          Vvel (THERMODYNAMICS)  min= -1.10756263988828E-01
DEBUG_STATS_RL:          Vvel (THERMODYNAMICS)  max=  7.07208418107748E-02
DEBUG_STATS_RL:          Vvel (THERMODYNAMICS) mean= -2.17557054829291E-03
DEBUG_STATS_RL:          Vvel (THERMODYNAMICS) S.D.=  1.80912833066734E-02
DEBUG_STATS_RL:          Wvel (THERMODYNAMICS)  min= -2.43811460414301E-04
DEBUG_STATS_RL:          Wvel (THERMODYNAMICS)  max=  3.28816353261777E-04
DEBUG_STATS_RL:          Wvel (THERMODYNAMICS) mean= -1.37923543343100E-07
DEBUG_STATS_RL:          Wvel (THERMODYNAMICS) S.D.=  2.75149300864464E-05
DEBUG_STATS_RL:         Theta (THERMODYNAMICS)  min= -1.96015217723737E+00
DEBUG_STATS_RL:         Theta (THERMODYNAMICS)  max=  1.32512671183369E+01
DEBUG_STATS_RL:         Theta (THERMODYNAMICS) mean=  2.41531606071968E+00
DEBUG_STATS_RL:         Theta (THERMODYNAMICS) S.D.=  2.57483151675911E+00
DEBUG_STATS_RL:          Salt (THERMODYNAMICS)  min=  2.76290307531745E+01
DEBUG_STATS_RL:          Salt (THERMODYNAMICS)  max=  3.54512307060718E+01
DEBUG_STATS_RL:          Salt (THERMODYNAMICS) mean=  3.39367446276229E+01
DEBUG_STATS_RL:          Salt (THERMODYNAMICS) S.D.=  1.15382313156959E+00
DEBUG_STATS_RL:         GtNm1 (THERMODYNAMICS)  min=  0.00000000000000E+00
DEBUG_STATS_RL:         GtNm1 (THERMODYNAMICS)  max=  0.00000000000000E+00
DEBUG_STATS_RL:         GtNm1 (THERMODYNAMICS) mean=  0.00000000000000E+00
DEBUG_STATS_RL:         GtNm1 (THERMODYNAMICS) S.D.=  0.00000000000000E+00
DEBUG_STATS_RL:         GsNm1 (THERMODYNAMICS)  min=  0.00000000000000E+00
DEBUG_STATS_RL:         GsNm1 (THERMODYNAMICS)  max=  0.00000000000000E+00
DEBUG_STATS_RL:         GsNm1 (THERMODYNAMICS) mean=  0.00000000000000E+00
DEBUG_STATS_RL:         GsNm1 (THERMODYNAMICS) S.D.=  0.00000000000000E+00
(PID.TID 0000.0001)  MDS_WRITE_FIELD: it,rec,kS,kL,kH=       1     7   1   1   1 file=m_sst_step.0000000001
(PID.TID 0000.0001)  MDS_READ_FIELD: opening global file: xx_atemp.effective.0000000001.data
(PID.TID 0000.0001) EXF_SET_FLD: processing field "climsss",  file: SSS_monthly.labsea1979
(PID.TID 0000.0001) EXF_SET_FLD:   myIter, count0, count1:         6      1      2
(PID.TID 0000.0001) EXF_SET_FLD:   first, changed, fac:   F   F    0.49180327868852458
(PID.TID 0000.0001) EXF_SET_FLD: processing field "uwind",  file: u10m.labsea1979
(PID.TID 0000.0001) EXF_SET_FLD:   myIter, count0, count1:         6      1      2
(PID.TID 0000.0001) EXF_SET_FLD:   first, changed, fac:   F   F    0.49180327868852458
(PID.TID 0000.0001) EXF_SET_FLD: processing field "vwind",  file: v10m.labsea1979
(PID.TID 0000.0001) EXF_SET_FLD:   myIter, count0, count1:         6      1      2
(PID.TID 0000.0001) EXF_SET_FLD:   first, changed, fac:   F   F    0.49180327868852458
(PID.TID 0000.0001) EXF_SET_FLD: processing field "atemp",  file: tair.labsea1979
(PID.TID 0000.0001) EXF_SET_FLD:   myIter, count0, count1:         6      1      2
(PID.TID 0000.0001) EXF_SET_FLD:   first, changed, fac:   F   F    0.49180327868852458
(PID.TID 0000.0001) EXF_SET_FLD: processing field "aqh",  file: qa.labsea1979
(PID.TID 0000.0001) EXF_SET_FLD:   myIter, count0, count1:         6      1      2
(PID.TID 0000.0001) EXF_SET_FLD:   first, changed, fac:   F   F    0.49180327868852458
(PID.TID 0000.0001) EXF_SET_FLD: processing field "precip",  file: prate.labsea1979
(PID.TID 0000.0001) EXF_SET_FLD:   myIter, count0, count1:         6      1      2
(PID.TID 0000.0001) EXF_SET_FLD:   first, changed, fac:   F   F    0.49180327868852458
(PID.TID 0000.0001) EXF_SET_FLD: processing field "swdown",  file: fsh.labsea1979
(PID.TID 0000.0001) EXF_SET_FLD:   myIter, count0, count1:         6      1      2
(PID.TID 0000.0001) EXF_SET_FLD:   first, changed, fac:   F   F    0.49180327868852458
(PID.TID 0000.0001) EXF_SET_FLD: processing field "lwdown",  file: flo.labsea1979
(PID.TID 0000.0001) EXF_SET_FLD:   myIter, count0, count1:         6      1      2
(PID.TID 0000.0001) EXF_SET_FLD:   first, changed, fac:   F   F    0.49180327868852458
DEBUG_STATS_RL: Uice pre  iter (SEAICE_LSR  1)  min= -1.19106759196645E-02
DEBUG_STATS_RL: Uice pre  iter (SEAICE_LSR  1)  max=  2.40859973799500E-01
DEBUG_STATS_RL: Uice pre  iter (SEAICE_LSR  1) mean=  7.02597534861136E-02
DEBUG_STATS_RL: Uice pre  iter (SEAICE_LSR  1) S.D.=  7.57773428260303E-02
DEBUG_STATS_RL: Vice pre  iter (SEAICE_LSR  1)  min= -1.74132342678210E-01
DEBUG_STATS_RL: Vice pre  iter (SEAICE_LSR  1)  max=  9.66358613081404E-02
DEBUG_STATS_RL: Vice pre  iter (SEAICE_LSR  1) mean= -4.28491368243080E-02
DEBUG_STATS_RL: Vice pre  iter (SEAICE_LSR  1) S.D.=  5.63763392292968E-02
DEBUG_STATS_RL: Uice pre  iter (SEAICE_LSR  2)  min= -1.30564509125788E-02
DEBUG_STATS_RL: Uice pre  iter (SEAICE_LSR  2)  max=  2.47901039964917E-01
DEBUG_STATS_RL: Uice pre  iter (SEAICE_LSR  2) mean=  6.80717062410257E-02
DEBUG_STATS_RL: Uice pre  iter (SEAICE_LSR  2) S.D.=  7.48548542543105E-02
DEBUG_STATS_RL: Vice pre  iter (SEAICE_LSR  2)  min= -1.68314830999121E-01
DEBUG_STATS_RL: Vice pre  iter (SEAICE_LSR  2)  max=  8.87290074915903E-02
DEBUG_STATS_RL: Vice pre  iter (SEAICE_LSR  2) mean= -4.61137817409616E-02
DEBUG_STATS_RL: Vice pre  iter (SEAICE_LSR  2) S.D.=  5.74118961797614E-02
DEBUG_STATS_RL:                EtaN (DYNAMICS)  min= -1.25510578434547E-01
DEBUG_STATS_RL:                EtaN (DYNAMICS)  max=  3.29809109672001E-01
DEBUG_STATS_RL:                EtaN (DYNAMICS) mean= -3.51679735468711E-03
DEBUG_STATS_RL:                EtaN (DYNAMICS) S.D.=  7.24267737471148E-02
DEBUG_STATS_RL:                Uvel (DYNAMICS)  min= -3.59096386964073E-02
DEBUG_STATS_RL:                Uvel (DYNAMICS)  max=  1.01288605318194E-01
DEBUG_STATS_RL:                Uvel (DYNAMICS) mean=  5.06442107691350E-03
DEBUG_STATS_RL:                Uvel (DYNAMICS) S.D.=  1.40087544095651E-02
DEBUG_STATS_RL:                Vvel (DYNAMICS)  min= -1.10756263988828E-01
DEBUG_STATS_RL:                Vvel (DYNAMICS)  max=  7.07208418107748E-02
DEBUG_STATS_RL:                Vvel (DYNAMICS) mean= -2.17557054829291E-03
DEBUG_STATS_RL:                Vvel (DYNAMICS) S.D.=  1.80912833066734E-02
DEBUG_STATS_RL:                Wvel (DYNAMICS)  min= -2.43811460414301E-04
DEBUG_STATS_RL:                Wvel (DYNAMICS)  max=  3.28816353261777E-04
DEBUG_STATS_RL:                Wvel (DYNAMICS) mean= -1.37923543343100E-07
DEBUG_STATS_RL:                Wvel (DYNAMICS) S.D.=  2.75149300864464E-05
DEBUG_STATS_RL:               Theta (DYNAMICS)  min= -1.96015217723737E+00
DEBUG_STATS_RL:               Theta (DYNAMICS)  max=  1.32512671183369E+01
DEBUG_STATS_RL:               Theta (DYNAMICS) mean=  2.41531606071968E+00
DEBUG_STATS_RL:               Theta (DYNAMICS) S.D.=  2.57483151675911E+00
DEBUG_STATS_RL:                Salt (DYNAMICS)  min=  2.76290307531745E+01
DEBUG_STATS_RL:                Salt (DYNAMICS)  max=  3.54512307060718E+01
DEBUG_STATS_RL:                Salt (DYNAMICS) mean=  3.39367446276229E+01
DEBUG_STATS_RL:                Salt (DYNAMICS) S.D.=  1.15382313156959E+00
DEBUG_STATS_RL:                  Gu (DYNAMICS)  min= -4.45840116902822E-02
DEBUG_STATS_RL:                  Gu (DYNAMICS)  max=  1.13252404039500E-01
DEBUG_STATS_RL:                  Gu (DYNAMICS) mean=  3.02808241160274E-03
DEBUG_STATS_RL:                  Gu (DYNAMICS) S.D.=  1.59063121239074E-02
DEBUG_STATS_RL:                  Gv (DYNAMICS)  min= -1.34630447324984E-01
DEBUG_STATS_RL:                  Gv (DYNAMICS)  max=  4.81174890382836E-02
DEBUG_STATS_RL:                  Gv (DYNAMICS) mean= -7.41639241988341E-03
DEBUG_STATS_RL:                  Gv (DYNAMICS) S.D.=  1.85638365104898E-02
DEBUG_STATS_RL:               GuNm1 (DYNAMICS)  min= -3.33271036892895E-07
DEBUG_STATS_RL:               GuNm1 (DYNAMICS)  max=  1.87479663955269E-07
DEBUG_STATS_RL:               GuNm1 (DYNAMICS) mean= -3.31200046770339E-09
DEBUG_STATS_RL:               GuNm1 (DYNAMICS) S.D.=  4.08419141881924E-08
DEBUG_STATS_RL:               GvNm1 (DYNAMICS)  min= -2.04912919624488E-07
DEBUG_STATS_RL:               GvNm1 (DYNAMICS)  max=  1.56710147054410E-07
DEBUG_STATS_RL:               GvNm1 (DYNAMICS) mean= -8.96938696730513E-10
DEBUG_STATS_RL:               GvNm1 (DYNAMICS) S.D.=  3.95873164871993E-08
DEBUG_STATS_RL:               GtNm1 (DYNAMICS)  min=  0.00000000000000E+00
DEBUG_STATS_RL:               GtNm1 (DYNAMICS)  max=  0.00000000000000E+00
DEBUG_STATS_RL:               GtNm1 (DYNAMICS) mean=  0.00000000000000E+00
DEBUG_STATS_RL:               GtNm1 (DYNAMICS) S.D.=  0.00000000000000E+00
DEBUG_STATS_RL:               GsNm1 (DYNAMICS)  min=  0.00000000000000E+00
DEBUG_STATS_RL:               GsNm1 (DYNAMICS)  max=  0.00000000000000E+00
DEBUG_STATS_RL:               GsNm1 (DYNAMICS) mean=  0.00000000000000E+00
DEBUG_STATS_RL:               GsNm1 (DYNAMICS) S.D.=  0.00000000000000E+00
DEBUG_STATS_RL:    cg2d_b (SOLVE_FOR_PRESSURE)  min= -7.43169656860967E+03
DEBUG_STATS_RL:    cg2d_b (SOLVE_FOR_PRESSURE)  max=  2.17598296942694E+03
DEBUG_STATS_RL:    cg2d_b (SOLVE_FOR_PRESSURE) mean=  3.56408236257266E-13
DEBUG_STATS_RL:    cg2d_b (SOLVE_FOR_PRESSURE) S.D.=  9.02750100849266E+02
 cg2d: Sum(rhs),rhsMax =   7.94156407302182E-15  1.19612709187887E+00
DEBUG_STATS_RL:    cg2d_x (SOLVE_FOR_PRESSURE)  min= -1.18794061890975E+00
DEBUG_STATS_RL:    cg2d_x (SOLVE_FOR_PRESSURE)  max=  3.24511049575527E+00
DEBUG_STATS_RL:    cg2d_x (SOLVE_FOR_PRESSURE) mean= -3.88654400024646E-02
DEBUG_STATS_RL:    cg2d_x (SOLVE_FOR_PRESSURE) S.D.=  6.81167535251869E-01
DEBUG_STATS_RL:          Uvel (THERMODYNAMICS)  min= -3.57601727947611E-02
DEBUG_STATS_RL:          Uvel (THERMODYNAMICS)  max=  1.04775938290592E-01
DEBUG_STATS_RL:          Uvel (THERMODYNAMICS) mean=  4.39725630125057E-03
DEBUG_STATS_RL:          Uvel (THERMODYNAMICS) S.D.=  1.39028540310379E-02
DEBUG_STATS_RL:          Vvel (THERMODYNAMICS)  min= -1.27584762387787E-01
DEBUG_STATS_RL:          Vvel (THERMODYNAMICS)  max=  6.50083276838878E-02
DEBUG_STATS_RL:          Vvel (THERMODYNAMICS) mean= -3.36887217582952E-03
DEBUG_STATS_RL:          Vvel (THERMODYNAMICS) S.D.=  1.85890275650499E-02
DEBUG_STATS_RL:          Wvel (THERMODYNAMICS)  min= -2.67954696014332E-04
DEBUG_STATS_RL:          Wvel (THERMODYNAMICS)  max=  3.29804232734358E-04
DEBUG_STATS_RL:          Wvel (THERMODYNAMICS) mean= -4.85616750775318E-08
DEBUG_STATS_RL:          Wvel (THERMODYNAMICS) S.D.=  2.84164537902825E-05
DEBUG_STATS_RL:         Theta (THERMODYNAMICS)  min= -1.95963016104374E+00
DEBUG_STATS_RL:         Theta (THERMODYNAMICS)  max=  1.32396343409662E+01
DEBUG_STATS_RL:         Theta (THERMODYNAMICS) mean=  2.41506584132490E+00
DEBUG_STATS_RL:         Theta (THERMODYNAMICS) S.D.=  2.57443936967395E+00
DEBUG_STATS_RL:          Salt (THERMODYNAMICS)  min=  2.76338867569799E+01
DEBUG_STATS_RL:          Salt (THERMODYNAMICS)  max=  3.54511617149686E+01
DEBUG_STATS_RL:          Salt (THERMODYNAMICS) mean=  3.39367496241618E+01
DEBUG_STATS_RL:          Salt (THERMODYNAMICS) S.D.=  1.15359229307791E+00
DEBUG_STATS_RL:         GtNm1 (THERMODYNAMICS)  min=  0.00000000000000E+00
DEBUG_STATS_RL:         GtNm1 (THERMODYNAMICS)  max=  0.00000000000000E+00
DEBUG_STATS_RL:         GtNm1 (THERMODYNAMICS) mean=  0.00000000000000E+00
DEBUG_STATS_RL:         GtNm1 (THERMODYNAMICS) S.D.=  0.00000000000000E+00
DEBUG_STATS_RL:         GsNm1 (THERMODYNAMICS)  min=  0.00000000000000E+00
DEBUG_STATS_RL:         GsNm1 (THERMODYNAMICS)  max=  0.00000000000000E+00
DEBUG_STATS_RL:         GsNm1 (THERMODYNAMICS) mean=  0.00000000000000E+00
DEBUG_STATS_RL:         GsNm1 (THERMODYNAMICS) S.D.=  0.00000000000000E+00
(PID.TID 0000.0001)  MDS_WRITE_FIELD: it,rec,kS,kL,kH=       1     8   1   1   1 file=m_sst_step.0000000001
(PID.TID 0000.0001)  MDS_READ_FIELD: opening global file: xx_atemp.effective.0000000001.data
(PID.TID 0000.0001) EXF_SET_FLD: processing field "climsss",  file: SSS_monthly.labsea1979
(PID.TID 0000.0001) EXF_SET_FLD:   myIter, count0, count1:         7      1      2
(PID.TID 0000.0001) EXF_SET_FLD:   first, changed, fac:   F   F    0.49043715846994540
(PID.TID 0000.0001) EXF_SET_FLD: processing field "uwind",  file: u10m.labsea1979
(PID.TID 0000.0001) EXF_SET_FLD:   myIter, count0, count1:         7      1      2
(PID.TID 0000.0001) EXF_SET_FLD:   first, changed, fac:   F   F    0.49043715846994540
(PID.TID 0000.0001) EXF_SET_FLD: processing field "vwind",  file: v10m.labsea1979
(PID.TID 0000.0001) EXF_SET_FLD:   myIter, count0, count1:         7      1      2
(PID.TID 0000.0001) EXF_SET_FLD:   first, changed, fac:   F   F    0.49043715846994540
(PID.TID 0000.0001) EXF_SET_FLD: processing field "atemp",  file: tair.labsea1979
(PID.TID 0000.0001) EXF_SET_FLD:   myIter, count0, count1:         7      1      2
(PID.TID 0000.0001) EXF_SET_FLD:   first, changed, fac:   F   F    0.49043715846994540
(PID.TID 0000.0001) EXF_SET_FLD: processing field "aqh",  file: qa.labsea1979
(PID.TID 0000.0001) EXF_SET_FLD:   myIter, count0, count1:         7      1      2
(PID.TID 0000.0001) EXF_SET_FLD:   first, changed, fac:   F   F    0.49043715846994540
(PID.TID 0000.0001) EXF_SET_FLD: processing field "precip",  file: prate.labsea1979
(PID.TID 0000.0001) EXF_SET_FLD:   myIter, count0, count1:         7      1      2
(PID.TID 0000.0001) EXF_SET_FLD:   first, changed, fac:   F   F    0.49043715846994540
(PID.TID 0000.0001) EXF_SET_FLD: processing field "swdown",  file: fsh.labsea1979
(PID.TID 0000.0001) EXF_SET_FLD:   myIter, count0, count1:         7      1      2
(PID.TID 0000.0001) EXF_SET_FLD:   first, changed, fac:   F   F    0.49043715846994540
(PID.TID 0000.0001) EXF_SET_FLD: processing field "lwdown",  file: flo.labsea1979
(PID.TID 0000.0001) EXF_SET_FLD:   myIter, count0, count1:         7      1      2
(PID.TID 0000.0001) EXF_SET_FLD:   first, changed, fac:   F   F    0.49043715846994540
DEBUG_STATS_RL: Uice pre  iter (SEAICE_LSR  1)  min= -1.54549194525897E-02
DEBUG_STATS_RL: Uice pre  iter (SEAICE_LSR  1)  max=  2.53524286292195E-01
DEBUG_STATS_RL: Uice pre  iter (SEAICE_LSR  1) mean=  6.68799365320019E-02
DEBUG_STATS_RL: Uice pre  iter (SEAICE_LSR  1) S.D.=  7.54478852963106E-02
DEBUG_STATS_RL: Vice pre  iter (SEAICE_LSR  1)  min= -1.68373183022763E-01
DEBUG_STATS_RL: Vice pre  iter (SEAICE_LSR  1)  max=  8.10859368452304E-02
DEBUG_STATS_RL: Vice pre  iter (SEAICE_LSR  1) mean= -4.94905385201298E-02
DEBUG_STATS_RL: Vice pre  iter (SEAICE_LSR  1) S.D.=  5.89447951204810E-02
DEBUG_STATS_RL: Uice pre  iter (SEAICE_LSR  2)  min= -1.68104910559789E-02
DEBUG_STATS_RL: Uice pre  iter (SEAICE_LSR  2)  max=  2.51381266335640E-01
DEBUG_STATS_RL: Uice pre  iter (SEAICE_LSR  2) mean=  6.26056742416730E-02
DEBUG_STATS_RL: Uice pre  iter (SEAICE_LSR  2) S.D.=  7.23215228187166E-02
DEBUG_STATS_RL: Vice pre  iter (SEAICE_LSR  2)  min= -1.70146515868560E-01
DEBUG_STATS_RL: Vice pre  iter (SEAICE_LSR  2)  max=  7.01571636850255E-02
DEBUG_STATS_RL: Vice pre  iter (SEAICE_LSR  2) mean= -5.12009841743921E-02
DEBUG_STATS_RL: Vice pre  iter (SEAICE_LSR  2) S.D.=  5.84735965013277E-02
DEBUG_STATS_RL:                EtaN (DYNAMICS)  min= -1.21025777222966E-01
DEBUG_STATS_RL:                EtaN (DYNAMICS)  max=  3.30607450971440E-01
DEBUG_STATS_RL:                EtaN (DYNAMICS) mean= -3.95955825445868E-03
DEBUG_STATS_RL:                EtaN (DYNAMICS) S.D.=  6.93964235759270E-02
DEBUG_STATS_RL:                Uvel (DYNAMICS)  min= -3.57601727947611E-02
DEBUG_STATS_RL:                Uvel (DYNAMICS)  max=  1.04775938290592E-01
DEBUG_STATS_RL:                Uvel (DYNAMICS) mean=  4.39725630125057E-03
DEBUG_STATS_RL:                Uvel (DYNAMICS) S.D.=  1.39028540310379E-02
DEBUG_STATS_RL:                Vvel (DYNAMICS)  min= -1.27584762387787E-01
DEBUG_STATS_RL:                Vvel (DYNAMICS)  max=  6.50083276838878E-02
DEBUG_STATS_RL:                Vvel (DYNAMICS) mean= -3.36887217582952E-03
DEBUG_STATS_RL:                Vvel (DYNAMICS) S.D.=  1.85890275650499E-02
DEBUG_STATS_RL:                Wvel (DYNAMICS)  min= -2.67954696014332E-04
DEBUG_STATS_RL:                Wvel (DYNAMICS)  max=  3.29804232734358E-04
DEBUG_STATS_RL:                Wvel (DYNAMICS) mean= -4.85616750775318E-08
DEBUG_STATS_RL:                Wvel (DYNAMICS) S.D.=  2.84164537902825E-05
DEBUG_STATS_RL:               Theta (DYNAMICS)  min= -1.95963016104374E+00
DEBUG_STATS_RL:               Theta (DYNAMICS)  max=  1.32396343409662E+01
DEBUG_STATS_RL:               Theta (DYNAMICS) mean=  2.41506584132490E+00
DEBUG_STATS_RL:               Theta (DYNAMICS) S.D.=  2.57443936967395E+00
DEBUG_STATS_RL:                Salt (DYNAMICS)  min=  2.76338867569799E+01
DEBUG_STATS_RL:                Salt (DYNAMICS)  max=  3.54511617149686E+01
DEBUG_STATS_RL:                Salt (DYNAMICS) mean=  3.39367496241618E+01
DEBUG_STATS_RL:                Salt (DYNAMICS) S.D.=  1.15359229307791E+00
DEBUG_STATS_RL:                  Gu (DYNAMICS)  min= -5.18639383676349E-02
DEBUG_STATS_RL:                  Gu (DYNAMICS)  max=  1.08500044377569E-01
DEBUG_STATS_RL:                  Gu (DYNAMICS) mean=  2.22152146944406E-03
DEBUG_STATS_RL:                  Gu (DYNAMICS) S.D.=  1.62488741545494E-02
DEBUG_STATS_RL:                  Gv (DYNAMICS)  min= -1.40216393355467E-01
DEBUG_STATS_RL:                  Gv (DYNAMICS)  max=  4.07135165171529E-02
DEBUG_STATS_RL:                  Gv (DYNAMICS) mean= -7.84361289827183E-03
DEBUG_STATS_RL:                  Gv (DYNAMICS) S.D.=  1.86090017356397E-02
DEBUG_STATS_RL:               GuNm1 (DYNAMICS)  min= -3.48473911940027E-07
DEBUG_STATS_RL:               GuNm1 (DYNAMICS)  max=  1.90416017948044E-07
DEBUG_STATS_RL:               GuNm1 (DYNAMICS) mean= -3.12306477014554E-09
DEBUG_STATS_RL:               GuNm1 (DYNAMICS) S.D.=  4.09417632400038E-08
DEBUG_STATS_RL:               GvNm1 (DYNAMICS)  min= -2.15359173477265E-07
DEBUG_STATS_RL:               GvNm1 (DYNAMICS)  max=  1.82438063100026E-07
DEBUG_STATS_RL:               GvNm1 (DYNAMICS) mean= -6.53519601921356E-10
DEBUG_STATS_RL:               GvNm1 (DYNAMICS) S.D.=  4.16452354557336E-08
DEBUG_STATS_RL:               GtNm1 (DYNAMICS)  min=  0.00000000000000E+00
DEBUG_STATS_RL:               GtNm1 (DYNAMICS)  max=  0.00000000000000E+00
DEBUG_STATS_RL:               GtNm1 (DYNAMICS) mean=  0.00000000000000E+00
DEBUG_STATS_RL:               GtNm1 (DYNAMICS) S.D.=  0.00000000000000E+00
DEBUG_STATS_RL:               GsNm1 (DYNAMICS)  min=  0.00000000000000E+00
DEBUG_STATS_RL:               GsNm1 (DYNAMICS)  max=  0.00000000000000E+00
DEBUG_STATS_RL:               GsNm1 (DYNAMICS) mean=  0.00000000000000E+00
DEBUG_STATS_RL:               GsNm1 (DYNAMICS) S.D.=  0.00000000000000E+00
DEBUG_STATS_RL:    cg2d_b (SOLVE_FOR_PRESSURE)  min= -7.37985604508106E+03
DEBUG_STATS_RL:    cg2d_b (SOLVE_FOR_PRESSURE)  max=  2.18366607280460E+03
DEBUG_STATS_RL:    cg2d_b (SOLVE_FOR_PRESSURE) mean=  3.65692661337865E-13
DEBUG_STATS_RL:    cg2d_b (SOLVE_FOR_PRESSURE) S.D.=  8.98963545839186E+02
 cg2d: Sum(rhs),rhsMax =   6.50174358796107E-15  1.18778339080371E+00
DEBUG_STATS_RL:    cg2d_x (SOLVE_FOR_PRESSURE)  min= -1.13929441834703E+00
DEBUG_STATS_RL:    cg2d_x (SOLVE_FOR_PRESSURE)  max=  3.20616731162098E+00
DEBUG_STATS_RL:    cg2d_x (SOLVE_FOR_PRESSURE) mean= -4.15672442270760E-02
DEBUG_STATS_RL:    cg2d_x (SOLVE_FOR_PRESSURE) S.D.=  6.51074617231862E-01
DEBUG_STATS_RL:          Uvel (THERMODYNAMICS)  min= -4.34802359630896E-02
DEBUG_STATS_RL:          Uvel (THERMODYNAMICS)  max=  9.99752242998812E-02
DEBUG_STATS_RL:          Uvel (THERMODYNAMICS) mean=  3.48264152589787E-03
DEBUG_STATS_RL:          Uvel (THERMODYNAMICS) S.D.=  1.35343125506224E-02
DEBUG_STATS_RL:          Vvel (THERMODYNAMICS)  min= -1.33439207289279E-01
DEBUG_STATS_RL:          Vvel (THERMODYNAMICS)  max=  5.60260700766974E-02
DEBUG_STATS_RL:          Vvel (THERMODYNAMICS) mean= -4.02696574873850E-03
DEBUG_STATS_RL:          Vvel (THERMODYNAMICS) S.D.=  1.80273334213014E-02
DEBUG_STATS_RL:          Wvel (THERMODYNAMICS)  min= -2.73348162229347E-04
DEBUG_STATS_RL:          Wvel (THERMODYNAMICS)  max=  3.13596923283712E-04
DEBUG_STATS_RL:          Wvel (THERMODYNAMICS) mean=  4.73709411302194E-08
DEBUG_STATS_RL:          Wvel (THERMODYNAMICS) S.D.=  2.82661454219222E-05
DEBUG_STATS_RL:         Theta (THERMODYNAMICS)  min= -1.95943609422388E+00
DEBUG_STATS_RL:         Theta (THERMODYNAMICS)  max=  1.32225113409295E+01
DEBUG_STATS_RL:         Theta (THERMODYNAMICS) mean=  2.41480286619418E+00
DEBUG_STATS_RL:         Theta (THERMODYNAMICS) S.D.=  2.57398860030337E+00
DEBUG_STATS_RL:          Salt (THERMODYNAMICS)  min=  2.76387468555707E+01
DEBUG_STATS_RL:          Salt (THERMODYNAMICS)  max=  3.54510358217953E+01
DEBUG_STATS_RL:          Salt (THERMODYNAMICS) mean=  3.39367601804938E+01
DEBUG_STATS_RL:          Salt (THERMODYNAMICS) S.D.=  1.15334890349882E+00
DEBUG_STATS_RL:         GtNm1 (THERMODYNAMICS)  min=  0.00000000000000E+00
DEBUG_STATS_RL:         GtNm1 (THERMODYNAMICS)  max=  0.00000000000000E+00
DEBUG_STATS_RL:         GtNm1 (THERMODYNAMICS) mean=  0.00000000000000E+00
DEBUG_STATS_RL:         GtNm1 (THERMODYNAMICS) S.D.=  0.00000000000000E+00
DEBUG_STATS_RL:         GsNm1 (THERMODYNAMICS)  min=  0.00000000000000E+00
DEBUG_STATS_RL:         GsNm1 (THERMODYNAMICS)  max=  0.00000000000000E+00
DEBUG_STATS_RL:         GsNm1 (THERMODYNAMICS) mean=  0.00000000000000E+00
DEBUG_STATS_RL:         GsNm1 (THERMODYNAMICS) S.D.=  0.00000000000000E+00
(PID.TID 0000.0001)  MDS_WRITE_FIELD: it,rec,kS,kL,kH=       1     9   1   1   1 file=m_sst_step.0000000001
(PID.TID 0000.0001)  MDS_READ_FIELD: opening global file: xx_atemp.effective.0000000001.data
(PID.TID 0000.0001) EXF_SET_FLD: processing field "climsss",  file: SSS_monthly.labsea1979
(PID.TID 0000.0001) EXF_SET_FLD:   myIter, count0, count1:         8      1      2
(PID.TID 0000.0001) EXF_SET_FLD:   first, changed, fac:   F   F    0.48907103825136611
(PID.TID 0000.0001) EXF_SET_FLD: processing field "uwind",  file: u10m.labsea1979
(PID.TID 0000.0001) EXF_SET_FLD:   myIter, count0, count1:         8      1      2
(PID.TID 0000.0001) EXF_SET_FLD:   first, changed, fac:   F   F    0.48907103825136611
(PID.TID 0000.0001) EXF_SET_FLD: processing field "vwind",  file: v10m.labsea1979
(PID.TID 0000.0001) EXF_SET_FLD:   myIter, count0, count1:         8      1      2
(PID.TID 0000.0001) EXF_SET_FLD:   first, changed, fac:   F   F    0.48907103825136611
(PID.TID 0000.0001) EXF_SET_FLD: processing field "atemp",  file: tair.labsea1979
(PID.TID 0000.0001) EXF_SET_FLD:   myIter, count0, count1:         8      1      2
(PID.TID 0000.0001) EXF_SET_FLD:   first, changed, fac:   F   F    0.48907103825136611
(PID.TID 0000.0001) EXF_SET_FLD: processing field "aqh",  file: qa.labsea1979
(PID.TID 0000.0001) EXF_SET_FLD:   myIter, count0, count1:         8      1      2
(PID.TID 0000.0001) EXF_SET_FLD:   first, changed, fac:   F   F    0.48907103825136611
(PID.TID 0000.0001) EXF_SET_FLD: processing field "precip",  file: prate.labsea1979
(PID.TID 0000.0001) EXF_SET_FLD:   myIter, count0, count1:         8      1      2
(PID.TID 0000.0001) EXF_SET_FLD:   first, changed, fac:   F   F    0.48907103825136611
(PID.TID 0000.0001) EXF_SET_FLD: processing field "swdown",  file: fsh.labsea1979
(PID.TID 0000.0001) EXF_SET_FLD:   myIter, count0, count1:         8      1      2
(PID.TID 0000.0001) EXF_SET_FLD:   first, changed, fac:   F   F    0.48907103825136611
(PID.TID 0000.0001) EXF_SET_FLD: processing field "lwdown",  file: flo.labsea1979
(PID.TID 0000.0001) EXF_SET_FLD:   myIter, count0, count1:         8      1      2
(PID.TID 0000.0001) EXF_SET_FLD:   first, changed, fac:   F   F    0.48907103825136611
DEBUG_STATS_RL: Uice pre  iter (SEAICE_LSR  1)  min= -1.95687208100125E-02
DEBUG_STATS_RL: Uice pre  iter (SEAICE_LSR  1)  max=  2.56695252608154E-01
DEBUG_STATS_RL: Uice pre  iter (SEAICE_LSR  1) mean=  6.10102626008288E-02
DEBUG_STATS_RL: Uice pre  iter (SEAICE_LSR  1) S.D.=  7.26515133443678E-02
DEBUG_STATS_RL: Vice pre  iter (SEAICE_LSR  1)  min= -1.74351841641280E-01
DEBUG_STATS_RL: Vice pre  iter (SEAICE_LSR  1)  max=  6.17815719868607E-02
DEBUG_STATS_RL: Vice pre  iter (SEAICE_LSR  1) mean= -5.34332922103342E-02
DEBUG_STATS_RL: Vice pre  iter (SEAICE_LSR  1) S.D.=  5.91879685812295E-02
DEBUG_STATS_RL: Uice pre  iter (SEAICE_LSR  2)  min= -2.10631196463151E-02
DEBUG_STATS_RL: Uice pre  iter (SEAICE_LSR  2)  max=  2.47741110498679E-01
DEBUG_STATS_RL: Uice pre  iter (SEAICE_LSR  2) mean=  5.58563099524840E-02
DEBUG_STATS_RL: Uice pre  iter (SEAICE_LSR  2) S.D.=  6.83562873807791E-02
DEBUG_STATS_RL: Vice pre  iter (SEAICE_LSR  2)  min= -1.71270231910393E-01
DEBUG_STATS_RL: Vice pre  iter (SEAICE_LSR  2)  max=  5.00408736690811E-02
DEBUG_STATS_RL: Vice pre  iter (SEAICE_LSR  2) mean= -5.35471708937645E-02
DEBUG_STATS_RL: Vice pre  iter (SEAICE_LSR  2) S.D.=  5.75117440525745E-02
DEBUG_STATS_RL:                EtaN (DYNAMICS)  min= -1.16069768363323E-01
DEBUG_STATS_RL:                EtaN (DYNAMICS)  max=  3.26639972250395E-01
DEBUG_STATS_RL:                EtaN (DYNAMICS) mean= -4.23481440024818E-03
DEBUG_STATS_RL:                EtaN (DYNAMICS) S.D.=  6.63305979493727E-02
DEBUG_STATS_RL:                Uvel (DYNAMICS)  min= -4.34802359630896E-02
DEBUG_STATS_RL:                Uvel (DYNAMICS)  max=  9.99752242998812E-02
DEBUG_STATS_RL:                Uvel (DYNAMICS) mean=  3.48264152589787E-03
DEBUG_STATS_RL:                Uvel (DYNAMICS) S.D.=  1.35343125506224E-02
DEBUG_STATS_RL:                Vvel (DYNAMICS)  min= -1.33439207289279E-01
DEBUG_STATS_RL:                Vvel (DYNAMICS)  max=  5.60260700766974E-02
DEBUG_STATS_RL:                Vvel (DYNAMICS) mean= -4.02696574873850E-03
DEBUG_STATS_RL:                Vvel (DYNAMICS) S.D.=  1.80273334213014E-02
DEBUG_STATS_RL:                Wvel (DYNAMICS)  min= -2.73348162229347E-04
DEBUG_STATS_RL:                Wvel (DYNAMICS)  max=  3.13596923283712E-04
DEBUG_STATS_RL:                Wvel (DYNAMICS) mean=  4.73709411302194E-08
DEBUG_STATS_RL:                Wvel (DYNAMICS) S.D.=  2.82661454219222E-05
DEBUG_STATS_RL:               Theta (DYNAMICS)  min= -1.95943609422388E+00
DEBUG_STATS_RL:               Theta (DYNAMICS)  max=  1.32225113409295E+01
DEBUG_STATS_RL:               Theta (DYNAMICS) mean=  2.41480286619418E+00
DEBUG_STATS_RL:               Theta (DYNAMICS) S.D.=  2.57398860030337E+00
DEBUG_STATS_RL:                Salt (DYNAMICS)  min=  2.76387468555707E+01
DEBUG_STATS_RL:                Salt (DYNAMICS)  max=  3.54510358217953E+01
DEBUG_STATS_RL:                Salt (DYNAMICS) mean=  3.39367601804938E+01
DEBUG_STATS_RL:                Salt (DYNAMICS) S.D.=  1.15334890349882E+00
DEBUG_STATS_RL:                  Gu (DYNAMICS)  min= -5.98368153138019E-02
DEBUG_STATS_RL:                  Gu (DYNAMICS)  max=  9.68873121299256E-02
DEBUG_STATS_RL:                  Gu (DYNAMICS) mean=  1.30194972946498E-03
DEBUG_STATS_RL:                  Gu (DYNAMICS) S.D.=  1.61566615235578E-02
DEBUG_STATS_RL:                  Gv (DYNAMICS)  min= -1.36271217267992E-01
DEBUG_STATS_RL:                  Gv (DYNAMICS)  max=  3.83573237348309E-02
DEBUG_STATS_RL:                  Gv (DYNAMICS) mean= -7.71950831959800E-03
DEBUG_STATS_RL:                  Gv (DYNAMICS) S.D.=  1.77533563667887E-02
DEBUG_STATS_RL:               GuNm1 (DYNAMICS)  min= -3.40955168137049E-07
DEBUG_STATS_RL:               GuNm1 (DYNAMICS)  max=  1.82641400821309E-07
DEBUG_STATS_RL:               GuNm1 (DYNAMICS) mean= -2.79196714443063E-09
DEBUG_STATS_RL:               GuNm1 (DYNAMICS) S.D.=  4.07453533304113E-08
DEBUG_STATS_RL:               GvNm1 (DYNAMICS)  min= -2.14559263714320E-07
DEBUG_STATS_RL:               GvNm1 (DYNAMICS)  max=  1.94148824775222E-07
DEBUG_STATS_RL:               GvNm1 (DYNAMICS) mean= -4.04169206802488E-10
DEBUG_STATS_RL:               GvNm1 (DYNAMICS) S.D.=  4.19222729580340E-08
DEBUG_STATS_RL:               GtNm1 (DYNAMICS)  min=  0.00000000000000E+00
DEBUG_STATS_RL:               GtNm1 (DYNAMICS)  max=  0.00000000000000E+00
DEBUG_STATS_RL:               GtNm1 (DYNAMICS) mean=  0.00000000000000E+00
DEBUG_STATS_RL:               GtNm1 (DYNAMICS) S.D.=  0.00000000000000E+00
DEBUG_STATS_RL:               GsNm1 (DYNAMICS)  min=  0.00000000000000E+00
DEBUG_STATS_RL:               GsNm1 (DYNAMICS)  max=  0.00000000000000E+00
DEBUG_STATS_RL:               GsNm1 (DYNAMICS) mean=  0.00000000000000E+00
DEBUG_STATS_RL:               GsNm1 (DYNAMICS) S.D.=  0.00000000000000E+00
DEBUG_STATS_RL:    cg2d_b (SOLVE_FOR_PRESSURE)  min= -7.29975929937780E+03
DEBUG_STATS_RL:    cg2d_b (SOLVE_FOR_PRESSURE)  max=  2.19478299507062E+03
DEBUG_STATS_RL:    cg2d_b (SOLVE_FOR_PRESSURE) mean= -7.40290791630590E-13
DEBUG_STATS_RL:    cg2d_b (SOLVE_FOR_PRESSURE) S.D.=  8.94146290227258E+02
 cg2d: Sum(rhs),rhsMax =  -1.47971912500822E-14  1.17489186776822E+00
DEBUG_STATS_RL:    cg2d_x (SOLVE_FOR_PRESSURE)  min= -1.08771127617369E+00
DEBUG_STATS_RL:    cg2d_x (SOLVE_FOR_PRESSURE)  max=  3.12128519797252E+00
DEBUG_STATS_RL:    cg2d_x (SOLVE_FOR_PRESSURE) mean= -4.19588396852236E-02
DEBUG_STATS_RL:    cg2d_x (SOLVE_FOR_PRESSURE) S.D.=  6.20262122262640E-01
DEBUG_STATS_RL:          Uvel (THERMODYNAMICS)  min= -5.12375198266615E-02
DEBUG_STATS_RL:          Uvel (THERMODYNAMICS)  max=  8.84896388076346E-02
DEBUG_STATS_RL:          Uvel (THERMODYNAMICS) mean=  2.55769138538098E-03
DEBUG_STATS_RL:          Uvel (THERMODYNAMICS) S.D.=  1.29064693910619E-02
DEBUG_STATS_RL:          Vvel (THERMODYNAMICS)  min= -1.29344604199480E-01
DEBUG_STATS_RL:          Vvel (THERMODYNAMICS)  max=  4.58633296186257E-02
DEBUG_STATS_RL:          Vvel (THERMODYNAMICS) mean= -4.14107843007037E-03
DEBUG_STATS_RL:          Vvel (THERMODYNAMICS) S.D.=  1.66082836245917E-02
DEBUG_STATS_RL:          Wvel (THERMODYNAMICS)  min= -2.60848991809578E-04
DEBUG_STATS_RL:          Wvel (THERMODYNAMICS)  max=  2.85731299794397E-04
DEBUG_STATS_RL:          Wvel (THERMODYNAMICS) mean=  1.36793666177050E-07
DEBUG_STATS_RL:          Wvel (THERMODYNAMICS) S.D.=  2.70580054557639E-05
DEBUG_STATS_RL:         Theta (THERMODYNAMICS)  min= -1.95932886747263E+00
DEBUG_STATS_RL:         Theta (THERMODYNAMICS)  max=  1.32010303660582E+01
DEBUG_STATS_RL:         Theta (THERMODYNAMICS) mean=  2.41452315045422E+00
DEBUG_STATS_RL:         Theta (THERMODYNAMICS) S.D.=  2.57350774067654E+00
DEBUG_STATS_RL:          Salt (THERMODYNAMICS)  min=  2.76435505129419E+01
DEBUG_STATS_RL:          Salt (THERMODYNAMICS)  max=  3.54508660670958E+01
DEBUG_STATS_RL:          Salt (THERMODYNAMICS) mean=  3.39367749828864E+01
DEBUG_STATS_RL:          Salt (THERMODYNAMICS) S.D.=  1.15309738582389E+00
DEBUG_STATS_RL:         GtNm1 (THERMODYNAMICS)  min=  0.00000000000000E+00
DEBUG_STATS_RL:         GtNm1 (THERMODYNAMICS)  max=  0.00000000000000E+00
DEBUG_STATS_RL:         GtNm1 (THERMODYNAMICS) mean=  0.00000000000000E+00
DEBUG_STATS_RL:         GtNm1 (THERMODYNAMICS) S.D.=  0.00000000000000E+00
DEBUG_STATS_RL:         GsNm1 (THERMODYNAMICS)  min=  0.00000000000000E+00
DEBUG_STATS_RL:         GsNm1 (THERMODYNAMICS)  max=  0.00000000000000E+00
DEBUG_STATS_RL:         GsNm1 (THERMODYNAMICS) mean=  0.00000000000000E+00
DEBUG_STATS_RL:         GsNm1 (THERMODYNAMICS) S.D.=  0.00000000000000E+00
(PID.TID 0000.0001) Did not write pickup because writePickupAtEnd = FALSE
(PID.TID 0000.0001)  MDS_WRITE_FIELD: it,rec,kS,kL,kH=       1    10   1   1   1 file=m_sst_step.0000000001
(PID.TID 0000.0001) gencost # 03
(PID.TID 0000.0001)  MDS_READ_FIELD: opening global file: sigma_sst.bin
(PID.TID 0000.0001)  MDS_READ_FIELD: opening global file: m_sst_step.0000000001.data
(PID.TID 0000.0001)  MDS_READ_FIELD: opening global file: labsea_SST_fields_t10
(PID.TID 0000.0001)  MDS_WRITE_FIELD: it,rec,kS,kL,kH=       1     1   1   1   1 file=misfit_sst
(PID.TID 0000.0001)  MDS_READ_FIELD: opening global file: sigma_sst.bin
(PID.TID 0000.0001)  MDS_READ_FIELD: opening global file: m_sst_step.0000000001.data
(PID.TID 0000.0001)  MDS_READ_FIELD: opening global file: labsea_SST_fields_t10
(PID.TID 0000.0001)  MDS_WRITE_FIELD: it,rec,kS,kL,kH=       1     2   1   1   1 file=misfit_sst
(PID.TID 0000.0001)  MDS_READ_FIELD: opening global file: sigma_sst.bin
(PID.TID 0000.0001)  MDS_READ_FIELD: opening global file: m_sst_step.0000000001.data
(PID.TID 0000.0001)  MDS_READ_FIELD: opening global file: labsea_SST_fields_t10
(PID.TID 0000.0001)  MDS_WRITE_FIELD: it,rec,kS,kL,kH=       1     3   1   1   1 file=misfit_sst
(PID.TID 0000.0001)  MDS_READ_FIELD: opening global file: sigma_sst.bin
(PID.TID 0000.0001)  MDS_READ_FIELD: opening global file: m_sst_step.0000000001.data
(PID.TID 0000.0001)  MDS_READ_FIELD: opening global file: labsea_SST_fields_t10
(PID.TID 0000.0001)  MDS_WRITE_FIELD: it,rec,kS,kL,kH=       1     4   1   1   1 file=misfit_sst
(PID.TID 0000.0001)  MDS_READ_FIELD: opening global file: sigma_sst.bin
(PID.TID 0000.0001)  MDS_READ_FIELD: opening global file: m_sst_step.0000000001.data
(PID.TID 0000.0001)  MDS_READ_FIELD: opening global file: labsea_SST_fields_t10
(PID.TID 0000.0001)  MDS_WRITE_FIELD: it,rec,kS,kL,kH=       1     5   1   1   1 file=misfit_sst
(PID.TID 0000.0001)  MDS_READ_FIELD: opening global file: sigma_sst.bin
(PID.TID 0000.0001)  MDS_READ_FIELD: opening global file: m_sst_step.0000000001.data
(PID.TID 0000.0001)  MDS_READ_FIELD: opening global file: labsea_SST_fields_t10
(PID.TID 0000.0001)  MDS_WRITE_FIELD: it,rec,kS,kL,kH=       1     6   1   1   1 file=misfit_sst
(PID.TID 0000.0001)  MDS_READ_FIELD: opening global file: sigma_sst.bin
(PID.TID 0000.0001)  MDS_READ_FIELD: opening global file: m_sst_step.0000000001.data
(PID.TID 0000.0001)  MDS_READ_FIELD: opening global file: labsea_SST_fields_t10
(PID.TID 0000.0001)  MDS_WRITE_FIELD: it,rec,kS,kL,kH=       1     7   1   1   1 file=misfit_sst
(PID.TID 0000.0001)  MDS_READ_FIELD: opening global file: sigma_sst.bin
(PID.TID 0000.0001)  MDS_READ_FIELD: opening global file: m_sst_step.0000000001.data
(PID.TID 0000.0001)  MDS_READ_FIELD: opening global file: labsea_SST_fields_t10
(PID.TID 0000.0001)  MDS_WRITE_FIELD: it,rec,kS,kL,kH=       1     8   1   1   1 file=misfit_sst
(PID.TID 0000.0001)  MDS_READ_FIELD: opening global file: sigma_sst.bin
(PID.TID 0000.0001)  MDS_READ_FIELD: opening global file: m_sst_step.0000000001.data
(PID.TID 0000.0001)  MDS_READ_FIELD: opening global file: labsea_SST_fields_t10
(PID.TID 0000.0001)  MDS_WRITE_FIELD: it,rec,kS,kL,kH=       1     9   1   1   1 file=misfit_sst
(PID.TID 0000.0001)  MDS_READ_FIELD: opening global file: sigma_sst.bin
(PID.TID 0000.0001)  MDS_READ_FIELD: opening global file: m_sst_step.0000000001.data
(PID.TID 0000.0001)  MDS_READ_FIELD: opening global file: labsea_SST_fields_t10
(PID.TID 0000.0001)  MDS_WRITE_FIELD: it,rec,kS,kL,kH=       1    10   1   1   1 file=misfit_sst
(PID.TID 0000.0001)  MDS_READ_FIELD: opening global file: xx_atemp.0000000001.data
(PID.TID 0000.0001)  MDS_READ_FIELD: opening global file: xx_atemp.0000000001.data
(PID.TID 0000.0001)  MDS_READ_FIELD: opening global file: xx_atemp.0000000001.data
(PID.TID 0000.0001)  MDS_READ_FIELD: opening global file: xx_atemp.0000000001.data
(PID.TID 0000.0001)  MDS_READ_FIELD: opening global file: xx_atemp.0000000001.data
(PID.TID 0000.0001)  MDS_READ_FIELD: opening global file: xx_atemp.0000000001.data
(PID.TID 0000.0001)  MDS_READ_FIELD: opening global file: xx_atemp.0000000001.data
(PID.TID 0000.0001)  MDS_READ_FIELD: opening global file: xx_atemp.0000000001.data
(PID.TID 0000.0001)  MDS_READ_FIELD: opening global file: xx_atemp.0000000001.data
(PID.TID 0000.0001)  MDS_READ_FIELD: opening global file: xx_atemp.0000000001.data
(PID.TID 0000.0001)  MDS_READ_FIELD: opening global file: xx_atemp.0000000001.data
 --> f_ice     = 0.000000000000000D+00
 --> f_smrarea = 0.000000000000000D+00
 --> f_smrarea = 0.000000000000000D+00
 --> f_smrarea = 0.000000000000000D+00
(PID.TID 0000.0001)  --> f_gencost = 0.527453128215448D+04 3
(PID.TID 0000.0001)  --> f_gentim2d = 0.243375020010000D+03 1
(PID.TID 0000.0001)  --> fc               = 0.527453128215448D+04
(PID.TID 0000.0001)  cost_Final: final cost function =  0.527453128215448D+04
(PID.TID 0000.0001) 
(PID.TID 0000.0001)              cost function evaluation finished.
(PID.TID 0000.0001) 
(PID.TID 0000.0001)   early fc =  0.000000000000000D+00
(PID.TID 0000.0001)   local fc =  0.527453128215448D+04
(PID.TID 0000.0001)  global fc =  0.527453128215448D+04
(PID.TID 0000.0001) grdchk perturb(+)fc: fcpertplus  =  5.27453128215448E+03
(PID.TID 0000.0001)  MDS_READ_FIELD: opening global file: xx_atemp.0000000001.data
(PID.TID 0000.0001)  MDS_WRITE_FIELD: it,rec,kS,kL,kH=       1     1   1   1   1 file=xx_atemp.0000000001
(PID.TID 0000.0001)  MDS_READ_FIELD: opening global file: xx_atemp.0000000001.data
(PID.TID 0000.0001)  MDS_WRITE_FIELD: it,rec,kS,kL,kH=       1     1   1   1   1 file=xx_atemp.0000000001
(PID.TID 0000.0001)  MDS_READ_FIELD: opening global file: LevCli_temp.labsea1979
(PID.TID 0000.0001)  MDS_READ_FIELD: opening global file: LevCli_salt.labsea1979
(PID.TID 0000.0001) Start initial hydrostatic pressure computation
(PID.TID 0000.0001) Pressure is predetermined for buoyancyRelation OCEANIC
(PID.TID 0000.0001) 
(PID.TID 0000.0001) CTRL_INIT_REC: Getting record indices for xx_atemp
(PID.TID 0000.0001) CTRL_INIT_REC: Record indices for xx_atemp:
(PID.TID 0000.0001) CTRL_INIT_REC: startrec =          1, endrec =         11
(PID.TID 0000.0001)  MDS_READ_FIELD: opening global file: xx_atemp.0000000001.data
(PID.TID 0000.0001)  MDS_WRITE_FIELD: it,rec,kS,kL,kH=       1     1   1   1   1 file=xx_atemp.effective.0000000001
(PID.TID 0000.0001)  MDS_READ_FIELD: opening global file: xx_atemp.0000000001.data
(PID.TID 0000.0001)  MDS_WRITE_FIELD: it,rec,kS,kL,kH=       1     2   1   1   1 file=xx_atemp.effective.0000000001
(PID.TID 0000.0001)  MDS_READ_FIELD: opening global file: xx_atemp.0000000001.data
(PID.TID 0000.0001)  MDS_WRITE_FIELD: it,rec,kS,kL,kH=       1     3   1   1   1 file=xx_atemp.effective.0000000001
(PID.TID 0000.0001)  MDS_READ_FIELD: opening global file: xx_atemp.0000000001.data
(PID.TID 0000.0001)  MDS_WRITE_FIELD: it,rec,kS,kL,kH=       1     4   1   1   1 file=xx_atemp.effective.0000000001
(PID.TID 0000.0001)  MDS_READ_FIELD: opening global file: xx_atemp.0000000001.data
(PID.TID 0000.0001)  MDS_WRITE_FIELD: it,rec,kS,kL,kH=       1     5   1   1   1 file=xx_atemp.effective.0000000001
(PID.TID 0000.0001)  MDS_READ_FIELD: opening global file: xx_atemp.0000000001.data
(PID.TID 0000.0001)  MDS_WRITE_FIELD: it,rec,kS,kL,kH=       1     6   1   1   1 file=xx_atemp.effective.0000000001
(PID.TID 0000.0001)  MDS_READ_FIELD: opening global file: xx_atemp.0000000001.data
(PID.TID 0000.0001)  MDS_WRITE_FIELD: it,rec,kS,kL,kH=       1     7   1   1   1 file=xx_atemp.effective.0000000001
(PID.TID 0000.0001)  MDS_READ_FIELD: opening global file: xx_atemp.0000000001.data
(PID.TID 0000.0001)  MDS_WRITE_FIELD: it,rec,kS,kL,kH=       1     8   1   1   1 file=xx_atemp.effective.0000000001
(PID.TID 0000.0001)  MDS_READ_FIELD: opening global file: xx_atemp.0000000001.data
(PID.TID 0000.0001)  MDS_WRITE_FIELD: it,rec,kS,kL,kH=       1     9   1   1   1 file=xx_atemp.effective.0000000001
(PID.TID 0000.0001)  MDS_READ_FIELD: opening global file: xx_atemp.0000000001.data
(PID.TID 0000.0001)  MDS_WRITE_FIELD: it,rec,kS,kL,kH=       1    10   1   1   1 file=xx_atemp.effective.0000000001
(PID.TID 0000.0001)  MDS_READ_FIELD: opening global file: xx_atemp.0000000001.data
(PID.TID 0000.0001)  MDS_WRITE_FIELD: it,rec,kS,kL,kH=       1    11   1   1   1 file=xx_atemp.effective.0000000001
(PID.TID 0000.0001)  MDS_READ_FIELD: opening global file: xx_atemp.effective.0000000001.data
(PID.TID 0000.0001)  MDS_READ_FIELD: opening global file: ones_64b.bin
(PID.TID 0000.0001)  MDS_WRITE_FIELD: it,rec,kS,kL,kH=       1     1   1   1   1 file=xx_atemp.effective.0000000001
(PID.TID 0000.0001)  MDS_READ_FIELD: opening global file: xx_atemp.effective.0000000001.data
(PID.TID 0000.0001)  MDS_READ_FIELD: opening global file: ones_64b.bin
(PID.TID 0000.0001)  MDS_WRITE_FIELD: it,rec,kS,kL,kH=       1     2   1   1   1 file=xx_atemp.effective.0000000001
(PID.TID 0000.0001)  MDS_READ_FIELD: opening global file: xx_atemp.effective.0000000001.data
(PID.TID 0000.0001)  MDS_READ_FIELD: opening global file: ones_64b.bin
(PID.TID 0000.0001)  MDS_WRITE_FIELD: it,rec,kS,kL,kH=       1     3   1   1   1 file=xx_atemp.effective.0000000001
(PID.TID 0000.0001)  MDS_READ_FIELD: opening global file: xx_atemp.effective.0000000001.data
(PID.TID 0000.0001)  MDS_READ_FIELD: opening global file: ones_64b.bin
(PID.TID 0000.0001)  MDS_WRITE_FIELD: it,rec,kS,kL,kH=       1     4   1   1   1 file=xx_atemp.effective.0000000001
(PID.TID 0000.0001)  MDS_READ_FIELD: opening global file: xx_atemp.effective.0000000001.data
(PID.TID 0000.0001)  MDS_READ_FIELD: opening global file: ones_64b.bin
(PID.TID 0000.0001)  MDS_WRITE_FIELD: it,rec,kS,kL,kH=       1     5   1   1   1 file=xx_atemp.effective.0000000001
(PID.TID 0000.0001)  MDS_READ_FIELD: opening global file: xx_atemp.effective.0000000001.data
(PID.TID 0000.0001)  MDS_READ_FIELD: opening global file: ones_64b.bin
(PID.TID 0000.0001)  MDS_WRITE_FIELD: it,rec,kS,kL,kH=       1     6   1   1   1 file=xx_atemp.effective.0000000001
(PID.TID 0000.0001)  MDS_READ_FIELD: opening global file: xx_atemp.effective.0000000001.data
(PID.TID 0000.0001)  MDS_READ_FIELD: opening global file: ones_64b.bin
(PID.TID 0000.0001)  MDS_WRITE_FIELD: it,rec,kS,kL,kH=       1     7   1   1   1 file=xx_atemp.effective.0000000001
(PID.TID 0000.0001)  MDS_READ_FIELD: opening global file: xx_atemp.effective.0000000001.data
(PID.TID 0000.0001)  MDS_READ_FIELD: opening global file: ones_64b.bin
(PID.TID 0000.0001)  MDS_WRITE_FIELD: it,rec,kS,kL,kH=       1     8   1   1   1 file=xx_atemp.effective.0000000001
(PID.TID 0000.0001)  MDS_READ_FIELD: opening global file: xx_atemp.effective.0000000001.data
(PID.TID 0000.0001)  MDS_READ_FIELD: opening global file: ones_64b.bin
(PID.TID 0000.0001)  MDS_WRITE_FIELD: it,rec,kS,kL,kH=       1     9   1   1   1 file=xx_atemp.effective.0000000001
(PID.TID 0000.0001)  MDS_READ_FIELD: opening global file: xx_atemp.effective.0000000001.data
(PID.TID 0000.0001)  MDS_READ_FIELD: opening global file: ones_64b.bin
(PID.TID 0000.0001)  MDS_WRITE_FIELD: it,rec,kS,kL,kH=       1    10   1   1   1 file=xx_atemp.effective.0000000001
(PID.TID 0000.0001)  MDS_READ_FIELD: opening global file: xx_atemp.effective.0000000001.data
(PID.TID 0000.0001)  MDS_READ_FIELD: opening global file: ones_64b.bin
(PID.TID 0000.0001)  MDS_WRITE_FIELD: it,rec,kS,kL,kH=       1    11   1   1   1 file=xx_atemp.effective.0000000001
(PID.TID 0000.0001) // =======================================================
(PID.TID 0000.0001) // Model current state
(PID.TID 0000.0001) // =======================================================
(PID.TID 0000.0001) 
(PID.TID 0000.0001)  MDS_WRITE_FIELD: it,rec,kS,kL,kH=       1     1   1   1   1 file=m_sst_step.0000000001
(PID.TID 0000.0001)  MDS_READ_FIELD: opening global file: xx_atemp.effective.0000000001.data
(PID.TID 0000.0001)  MDS_READ_FIELD: opening global file: xx_atemp.effective.0000000001.data
(PID.TID 0000.0001) EXF_SET_FLD: processing field "climsss",  file: SSS_monthly.labsea1979
(PID.TID 0000.0001) EXF_SET_FLD:   myIter, count0, count1:         0      1      2
(PID.TID 0000.0001) EXF_SET_FLD:   first, changed, fac:   T   F    0.50000000000000000
(PID.TID 0000.0001) EXF_SET_FLD: field "climsss", it=         0, loading rec=     1
(PID.TID 0000.0001) EXF_SET_FLD:   from file: "SSS_monthly.labsea1979"
(PID.TID 0000.0001)  MDS_READ_FIELD: opening global file: SSS_monthly.labsea1979
(PID.TID 0000.0001) EXF_SET_FLD: field "climsss", it=         0, loading rec=     2
(PID.TID 0000.0001) EXF_SET_FLD:   from file: "SSS_monthly.labsea1979"
(PID.TID 0000.0001)  MDS_READ_FIELD: opening global file: SSS_monthly.labsea1979
(PID.TID 0000.0001) EXF_SET_FLD: processing field "uwind",  file: u10m.labsea1979
(PID.TID 0000.0001) EXF_SET_FLD:   myIter, count0, count1:         0      1      2
(PID.TID 0000.0001) EXF_SET_FLD:   first, changed, fac:   T   F    0.50000000000000000
(PID.TID 0000.0001) EXF_SET_FLD: field "uwind", it=         0, loading rec=     1
(PID.TID 0000.0001) EXF_SET_FLD:   from file: "u10m.labsea1979"
(PID.TID 0000.0001)  MDS_READ_FIELD: opening global file: u10m.labsea1979
(PID.TID 0000.0001) EXF_SET_FLD: field "uwind", it=         0, loading rec=     2
(PID.TID 0000.0001) EXF_SET_FLD:   from file: "u10m.labsea1979"
(PID.TID 0000.0001)  MDS_READ_FIELD: opening global file: u10m.labsea1979
(PID.TID 0000.0001) EXF_SET_FLD: processing field "vwind",  file: v10m.labsea1979
(PID.TID 0000.0001) EXF_SET_FLD:   myIter, count0, count1:         0      1      2
(PID.TID 0000.0001) EXF_SET_FLD:   first, changed, fac:   T   F    0.50000000000000000
(PID.TID 0000.0001) EXF_SET_FLD: field "vwind", it=         0, loading rec=     1
(PID.TID 0000.0001) EXF_SET_FLD:   from file: "v10m.labsea1979"
(PID.TID 0000.0001)  MDS_READ_FIELD: opening global file: v10m.labsea1979
(PID.TID 0000.0001) EXF_SET_FLD: field "vwind", it=         0, loading rec=     2
(PID.TID 0000.0001) EXF_SET_FLD:   from file: "v10m.labsea1979"
(PID.TID 0000.0001)  MDS_READ_FIELD: opening global file: v10m.labsea1979
(PID.TID 0000.0001) EXF_SET_FLD: processing field "atemp",  file: tair.labsea1979
(PID.TID 0000.0001) EXF_SET_FLD:   myIter, count0, count1:         0      1      2
(PID.TID 0000.0001) EXF_SET_FLD:   first, changed, fac:   T   F    0.50000000000000000
(PID.TID 0000.0001) EXF_SET_FLD: field "atemp", it=         0, loading rec=     1
(PID.TID 0000.0001) EXF_SET_FLD:   from file: "tair.labsea1979"
(PID.TID 0000.0001)  MDS_READ_FIELD: opening global file: tair.labsea1979
(PID.TID 0000.0001) EXF_SET_FLD: field "atemp", it=         0, loading rec=     2
(PID.TID 0000.0001) EXF_SET_FLD:   from file: "tair.labsea1979"
(PID.TID 0000.0001)  MDS_READ_FIELD: opening global file: tair.labsea1979
(PID.TID 0000.0001) EXF_SET_FLD: processing field "aqh",  file: qa.labsea1979
(PID.TID 0000.0001) EXF_SET_FLD:   myIter, count0, count1:         0      1      2
(PID.TID 0000.0001) EXF_SET_FLD:   first, changed, fac:   T   F    0.50000000000000000
(PID.TID 0000.0001) EXF_SET_FLD: field "aqh", it=         0, loading rec=     1
(PID.TID 0000.0001) EXF_SET_FLD:   from file: "qa.labsea1979"
(PID.TID 0000.0001)  MDS_READ_FIELD: opening global file: qa.labsea1979
(PID.TID 0000.0001) EXF_SET_FLD: field "aqh", it=         0, loading rec=     2
(PID.TID 0000.0001) EXF_SET_FLD:   from file: "qa.labsea1979"
(PID.TID 0000.0001)  MDS_READ_FIELD: opening global file: qa.labsea1979
(PID.TID 0000.0001) EXF_SET_FLD: processing field "precip",  file: prate.labsea1979
(PID.TID 0000.0001) EXF_SET_FLD:   myIter, count0, count1:         0      1      2
(PID.TID 0000.0001) EXF_SET_FLD:   first, changed, fac:   T   F    0.50000000000000000
(PID.TID 0000.0001) EXF_SET_FLD: field "precip", it=         0, loading rec=     1
(PID.TID 0000.0001) EXF_SET_FLD:   from file: "prate.labsea1979"
(PID.TID 0000.0001)  MDS_READ_FIELD: opening global file: prate.labsea1979
(PID.TID 0000.0001) EXF_SET_FLD: field "precip", it=         0, loading rec=     2
(PID.TID 0000.0001) EXF_SET_FLD:   from file: "prate.labsea1979"
(PID.TID 0000.0001)  MDS_READ_FIELD: opening global file: prate.labsea1979
(PID.TID 0000.0001) EXF_SET_FLD: processing field "swdown",  file: fsh.labsea1979
(PID.TID 0000.0001) EXF_SET_FLD:   myIter, count0, count1:         0      1      2
(PID.TID 0000.0001) EXF_SET_FLD:   first, changed, fac:   T   F    0.50000000000000000
(PID.TID 0000.0001) EXF_SET_FLD: field "swdown", it=         0, loading rec=     1
(PID.TID 0000.0001) EXF_SET_FLD:   from file: "fsh.labsea1979"
(PID.TID 0000.0001)  MDS_READ_FIELD: opening global file: fsh.labsea1979
(PID.TID 0000.0001) EXF_SET_FLD: field "swdown", it=         0, loading rec=     2
(PID.TID 0000.0001) EXF_SET_FLD:   from file: "fsh.labsea1979"
(PID.TID 0000.0001)  MDS_READ_FIELD: opening global file: fsh.labsea1979
(PID.TID 0000.0001) EXF_SET_FLD: processing field "lwdown",  file: flo.labsea1979
(PID.TID 0000.0001) EXF_SET_FLD:   myIter, count0, count1:         0      1      2
(PID.TID 0000.0001) EXF_SET_FLD:   first, changed, fac:   T   F    0.50000000000000000
(PID.TID 0000.0001) EXF_SET_FLD: field "lwdown", it=         0, loading rec=     1
(PID.TID 0000.0001) EXF_SET_FLD:   from file: "flo.labsea1979"
(PID.TID 0000.0001)  MDS_READ_FIELD: opening global file: flo.labsea1979
(PID.TID 0000.0001) EXF_SET_FLD: field "lwdown", it=         0, loading rec=     2
(PID.TID 0000.0001) EXF_SET_FLD:   from file: "flo.labsea1979"
(PID.TID 0000.0001)  MDS_READ_FIELD: opening global file: flo.labsea1979
DEBUG_STATS_RL: Uice pre  iter (SEAICE_LSR  1)  min=  0.00000000000000E+00
DEBUG_STATS_RL: Uice pre  iter (SEAICE_LSR  1)  max=  0.00000000000000E+00
DEBUG_STATS_RL: Uice pre  iter (SEAICE_LSR  1) mean=  0.00000000000000E+00
DEBUG_STATS_RL: Uice pre  iter (SEAICE_LSR  1) S.D.=  0.00000000000000E+00
DEBUG_STATS_RL: Vice pre  iter (SEAICE_LSR  1)  min=  0.00000000000000E+00
DEBUG_STATS_RL: Vice pre  iter (SEAICE_LSR  1)  max=  0.00000000000000E+00
DEBUG_STATS_RL: Vice pre  iter (SEAICE_LSR  1) mean=  0.00000000000000E+00
DEBUG_STATS_RL: Vice pre  iter (SEAICE_LSR  1) S.D.=  0.00000000000000E+00
DEBUG_STATS_RL: Uice pre  iter (SEAICE_LSR  2)  min= -4.74478293331770E-04
DEBUG_STATS_RL: Uice pre  iter (SEAICE_LSR  2)  max=  5.19863184318560E-03
DEBUG_STATS_RL: Uice pre  iter (SEAICE_LSR  2) mean=  1.15969103043184E-03
DEBUG_STATS_RL: Uice pre  iter (SEAICE_LSR  2) S.D.=  1.37050304765703E-03
DEBUG_STATS_RL: Vice pre  iter (SEAICE_LSR  2)  min= -2.82028703630720E-03
DEBUG_STATS_RL: Vice pre  iter (SEAICE_LSR  2)  max=  8.55909305417855E-04
DEBUG_STATS_RL: Vice pre  iter (SEAICE_LSR  2) mean= -7.32602707228794E-04
DEBUG_STATS_RL: Vice pre  iter (SEAICE_LSR  2) S.D.=  9.65742386214621E-04
DEBUG_STATS_RL:                EtaN (DYNAMICS)  min=  0.00000000000000E+00
DEBUG_STATS_RL:                EtaN (DYNAMICS)  max=  0.00000000000000E+00
DEBUG_STATS_RL:                EtaN (DYNAMICS) mean=  0.00000000000000E+00
DEBUG_STATS_RL:                EtaN (DYNAMICS) S.D.=  0.00000000000000E+00
DEBUG_STATS_RL:                Uvel (DYNAMICS)  min=  0.00000000000000E+00
DEBUG_STATS_RL:                Uvel (DYNAMICS)  max=  0.00000000000000E+00
DEBUG_STATS_RL:                Uvel (DYNAMICS) mean=  0.00000000000000E+00
DEBUG_STATS_RL:                Uvel (DYNAMICS) S.D.=  0.00000000000000E+00
DEBUG_STATS_RL:                Vvel (DYNAMICS)  min=  0.00000000000000E+00
DEBUG_STATS_RL:                Vvel (DYNAMICS)  max=  0.00000000000000E+00
DEBUG_STATS_RL:                Vvel (DYNAMICS) mean=  0.00000000000000E+00
DEBUG_STATS_RL:                Vvel (DYNAMICS) S.D.=  0.00000000000000E+00
DEBUG_STATS_RL:                Wvel (DYNAMICS)  min=  0.00000000000000E+00
DEBUG_STATS_RL:                Wvel (DYNAMICS)  max=  0.00000000000000E+00
DEBUG_STATS_RL:                Wvel (DYNAMICS) mean=  0.00000000000000E+00
DEBUG_STATS_RL:                Wvel (DYNAMICS) S.D.=  0.00000000000000E+00
DEBUG_STATS_RL:               Theta (DYNAMICS)  min= -1.41036188602448E+00
DEBUG_STATS_RL:               Theta (DYNAMICS)  max=  1.33330764770508E+01
DEBUG_STATS_RL:               Theta (DYNAMICS) mean=  2.90475522269124E+00
DEBUG_STATS_RL:               Theta (DYNAMICS) S.D.=  2.44037465259698E+00
DEBUG_STATS_RL:                Salt (DYNAMICS)  min=  3.01286983489990E+01
DEBUG_STATS_RL:                Salt (DYNAMICS)  max=  3.54506225585938E+01
DEBUG_STATS_RL:                Salt (DYNAMICS) mean=  3.40845304745500E+01
DEBUG_STATS_RL:                Salt (DYNAMICS) S.D.=  9.00924836964808E-01
DEBUG_STATS_RL:                  Gu (DYNAMICS)  min= -2.00599447531986E-02
DEBUG_STATS_RL:                  Gu (DYNAMICS)  max=  1.04076999541495E-02
DEBUG_STATS_RL:                  Gu (DYNAMICS) mean= -2.58939542765896E-03
DEBUG_STATS_RL:                  Gu (DYNAMICS) S.D.=  4.84472279217175E-03
DEBUG_STATS_RL:                  Gv (DYNAMICS)  min= -2.97181268783620E-02
DEBUG_STATS_RL:                  Gv (DYNAMICS)  max=  1.05795727308992E-02
DEBUG_STATS_RL:                  Gv (DYNAMICS) mean= -1.51075895161939E-03
DEBUG_STATS_RL:                  Gv (DYNAMICS) S.D.=  5.23505354600419E-03
DEBUG_STATS_RL:               GuNm1 (DYNAMICS)  min=  0.00000000000000E+00
DEBUG_STATS_RL:               GuNm1 (DYNAMICS)  max=  0.00000000000000E+00
DEBUG_STATS_RL:               GuNm1 (DYNAMICS) mean=  0.00000000000000E+00
DEBUG_STATS_RL:               GuNm1 (DYNAMICS) S.D.=  0.00000000000000E+00
DEBUG_STATS_RL:               GvNm1 (DYNAMICS)  min=  0.00000000000000E+00
DEBUG_STATS_RL:               GvNm1 (DYNAMICS)  max=  0.00000000000000E+00
DEBUG_STATS_RL:               GvNm1 (DYNAMICS) mean=  0.00000000000000E+00
DEBUG_STATS_RL:               GvNm1 (DYNAMICS) S.D.=  0.00000000000000E+00
DEBUG_STATS_RL:               GtNm1 (DYNAMICS)  min=  0.00000000000000E+00
DEBUG_STATS_RL:               GtNm1 (DYNAMICS)  max=  0.00000000000000E+00
DEBUG_STATS_RL:               GtNm1 (DYNAMICS) mean=  0.00000000000000E+00
DEBUG_STATS_RL:               GtNm1 (DYNAMICS) S.D.=  0.00000000000000E+00
DEBUG_STATS_RL:               GsNm1 (DYNAMICS)  min=  0.00000000000000E+00
DEBUG_STATS_RL:               GsNm1 (DYNAMICS)  max=  0.00000000000000E+00
DEBUG_STATS_RL:               GsNm1 (DYNAMICS) mean=  0.00000000000000E+00
DEBUG_STATS_RL:               GsNm1 (DYNAMICS) S.D.=  0.00000000000000E+00
(PID.TID 0000.0001) SOLVE_FOR_PRESSURE: putPmEinXvector =    F
DEBUG_STATS_RL:    cg2d_b (SOLVE_FOR_PRESSURE)  min= -6.15797366908278E+03
DEBUG_STATS_RL:    cg2d_b (SOLVE_FOR_PRESSURE)  max=  2.03762696322118E+03
DEBUG_STATS_RL:    cg2d_b (SOLVE_FOR_PRESSURE) mean=  2.40637139844087E-14
DEBUG_STATS_RL:    cg2d_b (SOLVE_FOR_PRESSURE) S.D.=  8.03730450548215E+02
 cg2d: Sum(rhs),rhsMax =   7.91033905045424E-16  9.91122157459750E-01
DEBUG_STATS_RL:    cg2d_x (SOLVE_FOR_PRESSURE)  min= -7.77200124675132E-01
DEBUG_STATS_RL:    cg2d_x (SOLVE_FOR_PRESSURE)  max=  2.02552651121663E+00
DEBUG_STATS_RL:    cg2d_x (SOLVE_FOR_PRESSURE) mean= -8.58037095103906E-03
DEBUG_STATS_RL:    cg2d_x (SOLVE_FOR_PRESSURE) S.D.=  4.14863218307968E-01
DEBUG_STATS_RL:          Uvel (THERMODYNAMICS)  min= -1.97613285723242E-02
DEBUG_STATS_RL:          Uvel (THERMODYNAMICS)  max=  1.31897193240012E-02
DEBUG_STATS_RL:          Uvel (THERMODYNAMICS) mean= -7.76915115649382E-04
DEBUG_STATS_RL:          Uvel (THERMODYNAMICS) S.D.=  3.97168834923499E-03
DEBUG_STATS_RL:          Vvel (THERMODYNAMICS)  min= -1.13773235335529E-02
DEBUG_STATS_RL:          Vvel (THERMODYNAMICS)  max=  2.04284639774261E-02
DEBUG_STATS_RL:          Vvel (THERMODYNAMICS) mean=  7.24190880687442E-04
DEBUG_STATS_RL:          Vvel (THERMODYNAMICS) S.D.=  4.28907995073846E-03
DEBUG_STATS_RL:          Wvel (THERMODYNAMICS)  min= -4.27131465138430E-05
DEBUG_STATS_RL:          Wvel (THERMODYNAMICS)  max=  1.16530364658749E-04
DEBUG_STATS_RL:          Wvel (THERMODYNAMICS) mean= -4.07763417598552E-07
DEBUG_STATS_RL:          Wvel (THERMODYNAMICS) S.D.=  1.80149904412009E-05
DEBUG_STATS_RL:         Theta (THERMODYNAMICS)  min= -1.41019615972461E+00
DEBUG_STATS_RL:         Theta (THERMODYNAMICS)  max=  1.32440592110212E+01
DEBUG_STATS_RL:         Theta (THERMODYNAMICS) mean=  2.49735783552472E+00
DEBUG_STATS_RL:         Theta (THERMODYNAMICS) S.D.=  2.45807980529386E+00
DEBUG_STATS_RL:          Salt (THERMODYNAMICS)  min=  2.76560994014067E+01
DEBUG_STATS_RL:          Salt (THERMODYNAMICS)  max=  3.54507778736995E+01
DEBUG_STATS_RL:          Salt (THERMODYNAMICS) mean=  3.39623217189240E+01
DEBUG_STATS_RL:          Salt (THERMODYNAMICS) S.D.=  1.10108958710373E+00
DEBUG_STATS_RL:         GtNm1 (THERMODYNAMICS)  min=  0.00000000000000E+00
DEBUG_STATS_RL:         GtNm1 (THERMODYNAMICS)  max=  0.00000000000000E+00
DEBUG_STATS_RL:         GtNm1 (THERMODYNAMICS) mean=  0.00000000000000E+00
DEBUG_STATS_RL:         GtNm1 (THERMODYNAMICS) S.D.=  0.00000000000000E+00
DEBUG_STATS_RL:         GsNm1 (THERMODYNAMICS)  min=  0.00000000000000E+00
DEBUG_STATS_RL:         GsNm1 (THERMODYNAMICS)  max=  0.00000000000000E+00
DEBUG_STATS_RL:         GsNm1 (THERMODYNAMICS) mean=  0.00000000000000E+00
DEBUG_STATS_RL:         GsNm1 (THERMODYNAMICS) S.D.=  0.00000000000000E+00
(PID.TID 0000.0001)  MDS_WRITE_FIELD: it,rec,kS,kL,kH=       1     2   1   1   1 file=m_sst_step.0000000001
(PID.TID 0000.0001)  MDS_READ_FIELD: opening global file: xx_atemp.effective.0000000001.data
(PID.TID 0000.0001) EXF_SET_FLD: processing field "climsss",  file: SSS_monthly.labsea1979
(PID.TID 0000.0001) EXF_SET_FLD:   myIter, count0, count1:         1      1      2
(PID.TID 0000.0001) EXF_SET_FLD:   first, changed, fac:   F   F    0.49863387978142082
(PID.TID 0000.0001) EXF_SET_FLD: processing field "uwind",  file: u10m.labsea1979
(PID.TID 0000.0001) EXF_SET_FLD:   myIter, count0, count1:         1      1      2
(PID.TID 0000.0001) EXF_SET_FLD:   first, changed, fac:   F   F    0.49863387978142082
(PID.TID 0000.0001) EXF_SET_FLD: processing field "vwind",  file: v10m.labsea1979
(PID.TID 0000.0001) EXF_SET_FLD:   myIter, count0, count1:         1      1      2
(PID.TID 0000.0001) EXF_SET_FLD:   first, changed, fac:   F   F    0.49863387978142082
(PID.TID 0000.0001) EXF_SET_FLD: processing field "atemp",  file: tair.labsea1979
(PID.TID 0000.0001) EXF_SET_FLD:   myIter, count0, count1:         1      1      2
(PID.TID 0000.0001) EXF_SET_FLD:   first, changed, fac:   F   F    0.49863387978142082
(PID.TID 0000.0001) EXF_SET_FLD: processing field "aqh",  file: qa.labsea1979
(PID.TID 0000.0001) EXF_SET_FLD:   myIter, count0, count1:         1      1      2
(PID.TID 0000.0001) EXF_SET_FLD:   first, changed, fac:   F   F    0.49863387978142082
(PID.TID 0000.0001) EXF_SET_FLD: processing field "precip",  file: prate.labsea1979
(PID.TID 0000.0001) EXF_SET_FLD:   myIter, count0, count1:         1      1      2
(PID.TID 0000.0001) EXF_SET_FLD:   first, changed, fac:   F   F    0.49863387978142082
(PID.TID 0000.0001) EXF_SET_FLD: processing field "swdown",  file: fsh.labsea1979
(PID.TID 0000.0001) EXF_SET_FLD:   myIter, count0, count1:         1      1      2
(PID.TID 0000.0001) EXF_SET_FLD:   first, changed, fac:   F   F    0.49863387978142082
(PID.TID 0000.0001) EXF_SET_FLD: processing field "lwdown",  file: flo.labsea1979
(PID.TID 0000.0001) EXF_SET_FLD:   myIter, count0, count1:         1      1      2
(PID.TID 0000.0001) EXF_SET_FLD:   first, changed, fac:   F   F    0.49863387978142082
DEBUG_STATS_RL: Uice pre  iter (SEAICE_LSR  1)  min= -1.15942749827435E-03
DEBUG_STATS_RL: Uice pre  iter (SEAICE_LSR  1)  max=  1.20418167656252E-02
DEBUG_STATS_RL: Uice pre  iter (SEAICE_LSR  1) mean=  2.64506216410235E-03
DEBUG_STATS_RL: Uice pre  iter (SEAICE_LSR  1) S.D.=  3.13774756817759E-03
DEBUG_STATS_RL: Vice pre  iter (SEAICE_LSR  1)  min= -5.99336397479914E-03
DEBUG_STATS_RL: Vice pre  iter (SEAICE_LSR  1)  max=  4.08760906980194E-03
DEBUG_STATS_RL: Vice pre  iter (SEAICE_LSR  1) mean= -1.18494610218030E-03
DEBUG_STATS_RL: Vice pre  iter (SEAICE_LSR  1) S.D.=  2.51572614879252E-03
DEBUG_STATS_RL: Uice pre  iter (SEAICE_LSR  2)  min= -1.66461661595648E-03
DEBUG_STATS_RL: Uice pre  iter (SEAICE_LSR  2)  max=  2.05817158221004E-01
DEBUG_STATS_RL: Uice pre  iter (SEAICE_LSR  2) mean=  2.18937658776571E-02
DEBUG_STATS_RL: Uice pre  iter (SEAICE_LSR  2) S.D.=  4.15140060700915E-02
DEBUG_STATS_RL: Vice pre  iter (SEAICE_LSR  2)  min= -1.15170217241259E-02
DEBUG_STATS_RL: Vice pre  iter (SEAICE_LSR  2)  max=  6.02623623339015E-02
DEBUG_STATS_RL: Vice pre  iter (SEAICE_LSR  2) mean= -5.88552864117190E-04
DEBUG_STATS_RL: Vice pre  iter (SEAICE_LSR  2) S.D.=  1.21471679479492E-02
DEBUG_STATS_RL:                EtaN (DYNAMICS)  min= -7.91800933896177E-02
DEBUG_STATS_RL:                EtaN (DYNAMICS)  max=  2.06357890624784E-01
DEBUG_STATS_RL:                EtaN (DYNAMICS) mean= -8.74156541733471E-04
DEBUG_STATS_RL:                EtaN (DYNAMICS) S.D.=  4.22657013639480E-02
DEBUG_STATS_RL:                Uvel (DYNAMICS)  min= -1.97613285723242E-02
DEBUG_STATS_RL:                Uvel (DYNAMICS)  max=  1.31897193240012E-02
DEBUG_STATS_RL:                Uvel (DYNAMICS) mean= -7.76915115649382E-04
DEBUG_STATS_RL:                Uvel (DYNAMICS) S.D.=  3.97168834923499E-03
DEBUG_STATS_RL:                Vvel (DYNAMICS)  min= -1.13773235335529E-02
DEBUG_STATS_RL:                Vvel (DYNAMICS)  max=  2.04284639774261E-02
DEBUG_STATS_RL:                Vvel (DYNAMICS) mean=  7.24190880687442E-04
DEBUG_STATS_RL:                Vvel (DYNAMICS) S.D.=  4.28907995073846E-03
DEBUG_STATS_RL:                Wvel (DYNAMICS)  min= -4.27131465138430E-05
DEBUG_STATS_RL:                Wvel (DYNAMICS)  max=  1.16530364658749E-04
DEBUG_STATS_RL:                Wvel (DYNAMICS) mean= -4.07763417598552E-07
DEBUG_STATS_RL:                Wvel (DYNAMICS) S.D.=  1.80149904412009E-05
DEBUG_STATS_RL:               Theta (DYNAMICS)  min= -1.41019615972461E+00
DEBUG_STATS_RL:               Theta (DYNAMICS)  max=  1.32440592110212E+01
DEBUG_STATS_RL:               Theta (DYNAMICS) mean=  2.49735783552472E+00
DEBUG_STATS_RL:               Theta (DYNAMICS) S.D.=  2.45807980529386E+00
DEBUG_STATS_RL:                Salt (DYNAMICS)  min=  2.76560994014067E+01
DEBUG_STATS_RL:                Salt (DYNAMICS)  max=  3.54507778736995E+01
DEBUG_STATS_RL:                Salt (DYNAMICS) mean=  3.39623217189240E+01
DEBUG_STATS_RL:                Salt (DYNAMICS) S.D.=  1.10108958710373E+00
DEBUG_STATS_RL:                  Gu (DYNAMICS)  min= -2.89112950168885E-02
DEBUG_STATS_RL:                  Gu (DYNAMICS)  max=  3.25741619058374E-02
DEBUG_STATS_RL:                  Gu (DYNAMICS) mean= -2.32520622241047E-03
DEBUG_STATS_RL:                  Gu (DYNAMICS) S.D.=  7.09155735785286E-03
DEBUG_STATS_RL:                  Gv (DYNAMICS)  min= -3.71241625510621E-02
DEBUG_STATS_RL:                  Gv (DYNAMICS)  max=  1.83230442031147E-02
DEBUG_STATS_RL:                  Gv (DYNAMICS) mean= -1.89259208721353E-03
DEBUG_STATS_RL:                  Gv (DYNAMICS) S.D.=  7.31046974976745E-03
DEBUG_STATS_RL:               GuNm1 (DYNAMICS)  min= -1.80289983389196E-07
DEBUG_STATS_RL:               GuNm1 (DYNAMICS)  max=  1.49251399870334E-07
DEBUG_STATS_RL:               GuNm1 (DYNAMICS) mean=  3.41794292088730E-09
DEBUG_STATS_RL:               GuNm1 (DYNAMICS) S.D.=  3.19693794884499E-08
DEBUG_STATS_RL:               GvNm1 (DYNAMICS)  min= -5.11118133734402E-08
DEBUG_STATS_RL:               GvNm1 (DYNAMICS)  max=  4.88281454922596E-08
DEBUG_STATS_RL:               GvNm1 (DYNAMICS) mean= -4.70245831256227E-11
DEBUG_STATS_RL:               GvNm1 (DYNAMICS) S.D.=  1.42003013108260E-08
DEBUG_STATS_RL:               GtNm1 (DYNAMICS)  min=  0.00000000000000E+00
DEBUG_STATS_RL:               GtNm1 (DYNAMICS)  max=  0.00000000000000E+00
DEBUG_STATS_RL:               GtNm1 (DYNAMICS) mean=  0.00000000000000E+00
DEBUG_STATS_RL:               GtNm1 (DYNAMICS) S.D.=  0.00000000000000E+00
DEBUG_STATS_RL:               GsNm1 (DYNAMICS)  min=  0.00000000000000E+00
DEBUG_STATS_RL:               GsNm1 (DYNAMICS)  max=  0.00000000000000E+00
DEBUG_STATS_RL:               GsNm1 (DYNAMICS) mean=  0.00000000000000E+00
DEBUG_STATS_RL:               GsNm1 (DYNAMICS) S.D.=  0.00000000000000E+00
DEBUG_STATS_RL:    cg2d_b (SOLVE_FOR_PRESSURE)  min= -7.40048897093643E+03
DEBUG_STATS_RL:    cg2d_b (SOLVE_FOR_PRESSURE)  max=  2.33428667016753E+03
DEBUG_STATS_RL:    cg2d_b (SOLVE_FOR_PRESSURE) mean=  8.75388650456443E-14
DEBUG_STATS_RL:    cg2d_b (SOLVE_FOR_PRESSURE) S.D.=  9.39768538610555E+02
 cg2d: Sum(rhs),rhsMax =   2.17881268582687E-15  1.19110424780756E+00
DEBUG_STATS_RL:    cg2d_x (SOLVE_FOR_PRESSURE)  min= -1.25977767814597E+00
DEBUG_STATS_RL:    cg2d_x (SOLVE_FOR_PRESSURE)  max=  2.83276936769492E+00
DEBUG_STATS_RL:    cg2d_x (SOLVE_FOR_PRESSURE) mean= -1.56118539431274E-02
DEBUG_STATS_RL:    cg2d_x (SOLVE_FOR_PRESSURE) S.D.=  6.63083405129650E-01
DEBUG_STATS_RL:          Uvel (THERMODYNAMICS)  min= -4.02432897586678E-02
DEBUG_STATS_RL:          Uvel (THERMODYNAMICS)  max=  3.23458159885798E-02
DEBUG_STATS_RL:          Uvel (THERMODYNAMICS) mean=  6.75465330210474E-04
DEBUG_STATS_RL:          Uvel (THERMODYNAMICS) S.D.=  7.33761384667340E-03
DEBUG_STATS_RL:          Vvel (THERMODYNAMICS)  min= -1.64862319058745E-02
DEBUG_STATS_RL:          Vvel (THERMODYNAMICS)  max=  4.21759382970958E-02
DEBUG_STATS_RL:          Vvel (THERMODYNAMICS) mean=  1.82858022907114E-03
DEBUG_STATS_RL:          Vvel (THERMODYNAMICS) S.D.=  8.08424055893998E-03
DEBUG_STATS_RL:          Wvel (THERMODYNAMICS)  min= -6.56490529174585E-05
DEBUG_STATS_RL:          Wvel (THERMODYNAMICS)  max=  1.68683217295656E-04
DEBUG_STATS_RL:          Wvel (THERMODYNAMICS) mean= -4.30739495114019E-07
DEBUG_STATS_RL:          Wvel (THERMODYNAMICS) S.D.=  1.89945067258090E-05
DEBUG_STATS_RL:         Theta (THERMODYNAMICS)  min= -1.83156742552816E+00
DEBUG_STATS_RL:         Theta (THERMODYNAMICS)  max=  1.32606612249659E+01
DEBUG_STATS_RL:         Theta (THERMODYNAMICS) mean=  2.43057765558689E+00
DEBUG_STATS_RL:         Theta (THERMODYNAMICS) S.D.=  2.55246643542934E+00
DEBUG_STATS_RL:          Salt (THERMODYNAMICS)  min=  2.76092906345221E+01
DEBUG_STATS_RL:          Salt (THERMODYNAMICS)  max=  3.54509236522671E+01
DEBUG_STATS_RL:          Salt (THERMODYNAMICS) mean=  3.39413044254441E+01
DEBUG_STATS_RL:          Salt (THERMODYNAMICS) S.D.=  1.14495872836436E+00
DEBUG_STATS_RL:         GtNm1 (THERMODYNAMICS)  min=  0.00000000000000E+00
DEBUG_STATS_RL:         GtNm1 (THERMODYNAMICS)  max=  0.00000000000000E+00
DEBUG_STATS_RL:         GtNm1 (THERMODYNAMICS) mean=  0.00000000000000E+00
DEBUG_STATS_RL:         GtNm1 (THERMODYNAMICS) S.D.=  0.00000000000000E+00
DEBUG_STATS_RL:         GsNm1 (THERMODYNAMICS)  min=  0.00000000000000E+00
DEBUG_STATS_RL:         GsNm1 (THERMODYNAMICS)  max=  0.00000000000000E+00
DEBUG_STATS_RL:         GsNm1 (THERMODYNAMICS) mean=  0.00000000000000E+00
DEBUG_STATS_RL:         GsNm1 (THERMODYNAMICS) S.D.=  0.00000000000000E+00
(PID.TID 0000.0001)  MDS_WRITE_FIELD: it,rec,kS,kL,kH=       1     3   1   1   1 file=m_sst_step.0000000001
(PID.TID 0000.0001)  MDS_READ_FIELD: opening global file: xx_atemp.effective.0000000001.data
(PID.TID 0000.0001) EXF_SET_FLD: processing field "climsss",  file: SSS_monthly.labsea1979
(PID.TID 0000.0001) EXF_SET_FLD:   myIter, count0, count1:         2      1      2
(PID.TID 0000.0001) EXF_SET_FLD:   first, changed, fac:   F   F    0.49726775956284153
(PID.TID 0000.0001) EXF_SET_FLD: processing field "uwind",  file: u10m.labsea1979
(PID.TID 0000.0001) EXF_SET_FLD:   myIter, count0, count1:         2      1      2
(PID.TID 0000.0001) EXF_SET_FLD:   first, changed, fac:   F   F    0.49726775956284153
(PID.TID 0000.0001) EXF_SET_FLD: processing field "vwind",  file: v10m.labsea1979
(PID.TID 0000.0001) EXF_SET_FLD:   myIter, count0, count1:         2      1      2
(PID.TID 0000.0001) EXF_SET_FLD:   first, changed, fac:   F   F    0.49726775956284153
(PID.TID 0000.0001) EXF_SET_FLD: processing field "atemp",  file: tair.labsea1979
(PID.TID 0000.0001) EXF_SET_FLD:   myIter, count0, count1:         2      1      2
(PID.TID 0000.0001) EXF_SET_FLD:   first, changed, fac:   F   F    0.49726775956284153
(PID.TID 0000.0001) EXF_SET_FLD: processing field "aqh",  file: qa.labsea1979
(PID.TID 0000.0001) EXF_SET_FLD:   myIter, count0, count1:         2      1      2
(PID.TID 0000.0001) EXF_SET_FLD:   first, changed, fac:   F   F    0.49726775956284153
(PID.TID 0000.0001) EXF_SET_FLD: processing field "precip",  file: prate.labsea1979
(PID.TID 0000.0001) EXF_SET_FLD:   myIter, count0, count1:         2      1      2
(PID.TID 0000.0001) EXF_SET_FLD:   first, changed, fac:   F   F    0.49726775956284153
(PID.TID 0000.0001) EXF_SET_FLD: processing field "swdown",  file: fsh.labsea1979
(PID.TID 0000.0001) EXF_SET_FLD:   myIter, count0, count1:         2      1      2
(PID.TID 0000.0001) EXF_SET_FLD:   first, changed, fac:   F   F    0.49726775956284153
(PID.TID 0000.0001) EXF_SET_FLD: processing field "lwdown",  file: flo.labsea1979
(PID.TID 0000.0001) EXF_SET_FLD:   myIter, count0, count1:         2      1      2
(PID.TID 0000.0001) EXF_SET_FLD:   first, changed, fac:   F   F    0.49726775956284153
DEBUG_STATS_RL: Uice pre  iter (SEAICE_LSR  1)  min= -2.72590911190268E-03
DEBUG_STATS_RL: Uice pre  iter (SEAICE_LSR  1)  max=  1.84821888363616E-01
DEBUG_STATS_RL: Uice pre  iter (SEAICE_LSR  1) mean=  4.43171854916033E-02
DEBUG_STATS_RL: Uice pre  iter (SEAICE_LSR  1) S.D.=  5.55969094951719E-02
DEBUG_STATS_RL: Vice pre  iter (SEAICE_LSR  1)  min= -3.16987209121493E-02
DEBUG_STATS_RL: Vice pre  iter (SEAICE_LSR  1)  max=  6.25866618672353E-02
DEBUG_STATS_RL: Vice pre  iter (SEAICE_LSR  1) mean= -5.92146683075906E-03
DEBUG_STATS_RL: Vice pre  iter (SEAICE_LSR  1) S.D.=  1.77615498819457E-02
DEBUG_STATS_RL: Uice pre  iter (SEAICE_LSR  2)  min= -3.50206878134641E-03
DEBUG_STATS_RL: Uice pre  iter (SEAICE_LSR  2)  max=  1.92025155896598E-01
DEBUG_STATS_RL: Uice pre  iter (SEAICE_LSR  2) mean=  5.29589963327136E-02
DEBUG_STATS_RL: Uice pre  iter (SEAICE_LSR  2) S.D.=  5.86189159299463E-02
DEBUG_STATS_RL: Vice pre  iter (SEAICE_LSR  2)  min= -6.12456112266483E-02
DEBUG_STATS_RL: Vice pre  iter (SEAICE_LSR  2)  max=  9.55317561460534E-02
DEBUG_STATS_RL: Vice pre  iter (SEAICE_LSR  2) mean= -1.11523016929995E-02
DEBUG_STATS_RL: Vice pre  iter (SEAICE_LSR  2) S.D.=  2.73762100031939E-02
DEBUG_STATS_RL:                EtaN (DYNAMICS)  min= -1.28344439274825E-01
DEBUG_STATS_RL:                EtaN (DYNAMICS)  max=  2.88598696737328E-01
DEBUG_STATS_RL:                EtaN (DYNAMICS) mean= -1.59051448134881E-03
DEBUG_STATS_RL:                EtaN (DYNAMICS) S.D.=  6.75540369544042E-02
DEBUG_STATS_RL:                Uvel (DYNAMICS)  min= -4.02432897586678E-02
DEBUG_STATS_RL:                Uvel (DYNAMICS)  max=  3.23458159885798E-02
DEBUG_STATS_RL:                Uvel (DYNAMICS) mean=  6.75465330210474E-04
DEBUG_STATS_RL:                Uvel (DYNAMICS) S.D.=  7.33761384667340E-03
DEBUG_STATS_RL:                Vvel (DYNAMICS)  min= -1.64862319058745E-02
DEBUG_STATS_RL:                Vvel (DYNAMICS)  max=  4.21759382970958E-02
DEBUG_STATS_RL:                Vvel (DYNAMICS) mean=  1.82858022907114E-03
DEBUG_STATS_RL:                Vvel (DYNAMICS) S.D.=  8.08424055893998E-03
DEBUG_STATS_RL:                Wvel (DYNAMICS)  min= -6.56490529174585E-05
DEBUG_STATS_RL:                Wvel (DYNAMICS)  max=  1.68683217295656E-04
DEBUG_STATS_RL:                Wvel (DYNAMICS) mean= -4.30739495114019E-07
DEBUG_STATS_RL:                Wvel (DYNAMICS) S.D.=  1.89945067258090E-05
DEBUG_STATS_RL:               Theta (DYNAMICS)  min= -1.83156742552816E+00
DEBUG_STATS_RL:               Theta (DYNAMICS)  max=  1.32606612249659E+01
DEBUG_STATS_RL:               Theta (DYNAMICS) mean=  2.43057765558689E+00
DEBUG_STATS_RL:               Theta (DYNAMICS) S.D.=  2.55246643542934E+00
DEBUG_STATS_RL:                Salt (DYNAMICS)  min=  2.76092906345221E+01
DEBUG_STATS_RL:                Salt (DYNAMICS)  max=  3.54509236522671E+01
DEBUG_STATS_RL:                Salt (DYNAMICS) mean=  3.39413044254441E+01
DEBUG_STATS_RL:                Salt (DYNAMICS) S.D.=  1.14495872836436E+00
DEBUG_STATS_RL:                  Gu (DYNAMICS)  min= -3.23510557472068E-02
DEBUG_STATS_RL:                  Gu (DYNAMICS)  max=  5.80377411255957E-02
DEBUG_STATS_RL:                  Gu (DYNAMICS) mean= -2.97572069518908E-04
DEBUG_STATS_RL:                  Gu (DYNAMICS) S.D.=  9.92934455351048E-03
DEBUG_STATS_RL:                  Gv (DYNAMICS)  min= -4.01882757136266E-02
DEBUG_STATS_RL:                  Gv (DYNAMICS)  max=  3.49568132071781E-02
DEBUG_STATS_RL:                  Gv (DYNAMICS) mean= -2.47632966120968E-03
DEBUG_STATS_RL:                  Gv (DYNAMICS) S.D.=  9.60357312381983E-03
DEBUG_STATS_RL:               GuNm1 (DYNAMICS)  min= -2.64915263690508E-07
DEBUG_STATS_RL:               GuNm1 (DYNAMICS)  max=  1.75889100747609E-07
DEBUG_STATS_RL:               GuNm1 (DYNAMICS) mean=  2.42191647085367E-09
DEBUG_STATS_RL:               GuNm1 (DYNAMICS) S.D.=  4.49076324943233E-08
DEBUG_STATS_RL:               GvNm1 (DYNAMICS)  min= -8.47298200112965E-08
DEBUG_STATS_RL:               GvNm1 (DYNAMICS)  max=  7.67749697778949E-08
DEBUG_STATS_RL:               GvNm1 (DYNAMICS) mean= -4.71533361263730E-10
DEBUG_STATS_RL:               GvNm1 (DYNAMICS) S.D.=  2.04113373444504E-08
DEBUG_STATS_RL:               GtNm1 (DYNAMICS)  min=  0.00000000000000E+00
DEBUG_STATS_RL:               GtNm1 (DYNAMICS)  max=  0.00000000000000E+00
DEBUG_STATS_RL:               GtNm1 (DYNAMICS) mean=  0.00000000000000E+00
DEBUG_STATS_RL:               GtNm1 (DYNAMICS) S.D.=  0.00000000000000E+00
DEBUG_STATS_RL:               GsNm1 (DYNAMICS)  min=  0.00000000000000E+00
DEBUG_STATS_RL:               GsNm1 (DYNAMICS)  max=  0.00000000000000E+00
DEBUG_STATS_RL:               GsNm1 (DYNAMICS) mean=  0.00000000000000E+00
DEBUG_STATS_RL:               GsNm1 (DYNAMICS) S.D.=  0.00000000000000E+00
DEBUG_STATS_RL:    cg2d_b (SOLVE_FOR_PRESSURE)  min= -7.51696131718239E+03
DEBUG_STATS_RL:    cg2d_b (SOLVE_FOR_PRESSURE)  max=  2.21291016221059E+03
DEBUG_STATS_RL:    cg2d_b (SOLVE_FOR_PRESSURE) mean=  4.60810648898284E-13
DEBUG_STATS_RL:    cg2d_b (SOLVE_FOR_PRESSURE) S.D.=  9.35355930257545E+02
 cg2d: Sum(rhs),rhsMax =   9.30852617209155E-15  1.20985040186718E+00
DEBUG_STATS_RL:    cg2d_x (SOLVE_FOR_PRESSURE)  min= -1.39137659518880E+00
DEBUG_STATS_RL:    cg2d_x (SOLVE_FOR_PRESSURE)  max=  3.06244143644457E+00
DEBUG_STATS_RL:    cg2d_x (SOLVE_FOR_PRESSURE) mean= -2.04738907201182E-02
DEBUG_STATS_RL:    cg2d_x (SOLVE_FOR_PRESSURE) S.D.=  7.54254787472962E-01
DEBUG_STATS_RL:          Uvel (THERMODYNAMICS)  min= -4.85747443135484E-02
DEBUG_STATS_RL:          Uvel (THERMODYNAMICS)  max=  6.48566534974124E-02
DEBUG_STATS_RL:          Uvel (THERMODYNAMICS) mean=  2.83347825460288E-03
DEBUG_STATS_RL:          Uvel (THERMODYNAMICS) S.D.=  1.04406948546637E-02
DEBUG_STATS_RL:          Vvel (THERMODYNAMICS)  min= -2.93630589495678E-02
DEBUG_STATS_RL:          Vvel (THERMODYNAMICS)  max=  5.51081422495748E-02
DEBUG_STATS_RL:          Vvel (THERMODYNAMICS) mean=  1.89398823345533E-03
DEBUG_STATS_RL:          Vvel (THERMODYNAMICS) S.D.=  1.13685531752912E-02
DEBUG_STATS_RL:          Wvel (THERMODYNAMICS)  min= -1.01835019199982E-04
DEBUG_STATS_RL:          Wvel (THERMODYNAMICS)  max=  2.18299385766809E-04
DEBUG_STATS_RL:          Wvel (THERMODYNAMICS) mean= -3.58449213339977E-07
DEBUG_STATS_RL:          Wvel (THERMODYNAMICS) S.D.=  2.04428902649885E-05
DEBUG_STATS_RL:         Theta (THERMODYNAMICS)  min= -1.93250363389783E+00
DEBUG_STATS_RL:         Theta (THERMODYNAMICS)  max=  1.32631363173882E+01
DEBUG_STATS_RL:         Theta (THERMODYNAMICS) mean=  2.41867029854828E+00
DEBUG_STATS_RL:         Theta (THERMODYNAMICS) S.D.=  2.57126546321788E+00
DEBUG_STATS_RL:          Salt (THERMODYNAMICS)  min=  2.76143299539290E+01
DEBUG_STATS_RL:          Salt (THERMODYNAMICS)  max=  3.54510577106203E+01
DEBUG_STATS_RL:          Salt (THERMODYNAMICS) mean=  3.39375783473312E+01
DEBUG_STATS_RL:          Salt (THERMODYNAMICS) S.D.=  1.15271478316028E+00
DEBUG_STATS_RL:         GtNm1 (THERMODYNAMICS)  min=  0.00000000000000E+00
DEBUG_STATS_RL:         GtNm1 (THERMODYNAMICS)  max=  0.00000000000000E+00
DEBUG_STATS_RL:         GtNm1 (THERMODYNAMICS) mean=  0.00000000000000E+00
DEBUG_STATS_RL:         GtNm1 (THERMODYNAMICS) S.D.=  0.00000000000000E+00
DEBUG_STATS_RL:         GsNm1 (THERMODYNAMICS)  min=  0.00000000000000E+00
DEBUG_STATS_RL:         GsNm1 (THERMODYNAMICS)  max=  0.00000000000000E+00
DEBUG_STATS_RL:         GsNm1 (THERMODYNAMICS) mean=  0.00000000000000E+00
DEBUG_STATS_RL:         GsNm1 (THERMODYNAMICS) S.D.=  0.00000000000000E+00
(PID.TID 0000.0001)  MDS_WRITE_FIELD: it,rec,kS,kL,kH=       1     4   1   1   1 file=m_sst_step.0000000001
(PID.TID 0000.0001)  MDS_READ_FIELD: opening global file: xx_atemp.effective.0000000001.data
(PID.TID 0000.0001) EXF_SET_FLD: processing field "climsss",  file: SSS_monthly.labsea1979
(PID.TID 0000.0001) EXF_SET_FLD:   myIter, count0, count1:         3      1      2
(PID.TID 0000.0001) EXF_SET_FLD:   first, changed, fac:   F   F    0.49590163934426235
(PID.TID 0000.0001) EXF_SET_FLD: processing field "uwind",  file: u10m.labsea1979
(PID.TID 0000.0001) EXF_SET_FLD:   myIter, count0, count1:         3      1      2
(PID.TID 0000.0001) EXF_SET_FLD:   first, changed, fac:   F   F    0.49590163934426235
(PID.TID 0000.0001) EXF_SET_FLD: processing field "vwind",  file: v10m.labsea1979
(PID.TID 0000.0001) EXF_SET_FLD:   myIter, count0, count1:         3      1      2
(PID.TID 0000.0001) EXF_SET_FLD:   first, changed, fac:   F   F    0.49590163934426235
(PID.TID 0000.0001) EXF_SET_FLD: processing field "atemp",  file: tair.labsea1979
(PID.TID 0000.0001) EXF_SET_FLD:   myIter, count0, count1:         3      1      2
(PID.TID 0000.0001) EXF_SET_FLD:   first, changed, fac:   F   F    0.49590163934426235
(PID.TID 0000.0001) EXF_SET_FLD: processing field "aqh",  file: qa.labsea1979
(PID.TID 0000.0001) EXF_SET_FLD:   myIter, count0, count1:         3      1      2
(PID.TID 0000.0001) EXF_SET_FLD:   first, changed, fac:   F   F    0.49590163934426235
(PID.TID 0000.0001) EXF_SET_FLD: processing field "precip",  file: prate.labsea1979
(PID.TID 0000.0001) EXF_SET_FLD:   myIter, count0, count1:         3      1      2
(PID.TID 0000.0001) EXF_SET_FLD:   first, changed, fac:   F   F    0.49590163934426235
(PID.TID 0000.0001) EXF_SET_FLD: processing field "swdown",  file: fsh.labsea1979
(PID.TID 0000.0001) EXF_SET_FLD:   myIter, count0, count1:         3      1      2
(PID.TID 0000.0001) EXF_SET_FLD:   first, changed, fac:   F   F    0.49590163934426235
(PID.TID 0000.0001) EXF_SET_FLD: processing field "lwdown",  file: flo.labsea1979
(PID.TID 0000.0001) EXF_SET_FLD:   myIter, count0, count1:         3      1      2
(PID.TID 0000.0001) EXF_SET_FLD:   first, changed, fac:   F   F    0.49590163934426235
DEBUG_STATS_RL: Uice pre  iter (SEAICE_LSR  1)  min= -4.89522325595885E-03
DEBUG_STATS_RL: Uice pre  iter (SEAICE_LSR  1)  max=  1.61355517756086E-01
DEBUG_STATS_RL: Uice pre  iter (SEAICE_LSR  1) mean=  5.67051326033980E-02
DEBUG_STATS_RL: Uice pre  iter (SEAICE_LSR  1) S.D.=  5.73816154994949E-02
DEBUG_STATS_RL: Vice pre  iter (SEAICE_LSR  1)  min= -1.51246540995872E-01
DEBUG_STATS_RL: Vice pre  iter (SEAICE_LSR  1)  max=  8.91076561218482E-02
DEBUG_STATS_RL: Vice pre  iter (SEAICE_LSR  1) mean= -1.97403473769178E-02
DEBUG_STATS_RL: Vice pre  iter (SEAICE_LSR  1) S.D.=  3.94189649066352E-02
DEBUG_STATS_RL: Uice pre  iter (SEAICE_LSR  2)  min= -5.42054480415656E-03
DEBUG_STATS_RL: Uice pre  iter (SEAICE_LSR  2)  max=  2.02641844081808E-01
DEBUG_STATS_RL: Uice pre  iter (SEAICE_LSR  2) mean=  6.47762112259655E-02
DEBUG_STATS_RL: Uice pre  iter (SEAICE_LSR  2) S.D.=  6.71608790532937E-02
DEBUG_STATS_RL: Vice pre  iter (SEAICE_LSR  2)  min= -1.45601126352218E-01
DEBUG_STATS_RL: Vice pre  iter (SEAICE_LSR  2)  max=  1.04145470460114E-01
DEBUG_STATS_RL: Vice pre  iter (SEAICE_LSR  2) mean= -2.31827417442178E-02
DEBUG_STATS_RL: Vice pre  iter (SEAICE_LSR  2) S.D.=  4.33109039410683E-02
DEBUG_STATS_RL:                EtaN (DYNAMICS)  min= -1.41751558253066E-01
DEBUG_STATS_RL:                EtaN (DYNAMICS)  max=  3.11997375243955E-01
DEBUG_STATS_RL:                EtaN (DYNAMICS) mean= -2.08585218632772E-03
DEBUG_STATS_RL:                EtaN (DYNAMICS) S.D.=  7.68424535915238E-02
DEBUG_STATS_RL:                Uvel (DYNAMICS)  min= -4.85747443135484E-02
DEBUG_STATS_RL:                Uvel (DYNAMICS)  max=  6.48566534974124E-02
DEBUG_STATS_RL:                Uvel (DYNAMICS) mean=  2.83347825460288E-03
DEBUG_STATS_RL:                Uvel (DYNAMICS) S.D.=  1.04406948546637E-02
DEBUG_STATS_RL:                Vvel (DYNAMICS)  min= -2.93630589495678E-02
DEBUG_STATS_RL:                Vvel (DYNAMICS)  max=  5.51081422495748E-02
DEBUG_STATS_RL:                Vvel (DYNAMICS) mean=  1.89398823345533E-03
DEBUG_STATS_RL:                Vvel (DYNAMICS) S.D.=  1.13685531752912E-02
DEBUG_STATS_RL:                Wvel (DYNAMICS)  min= -1.01835019199982E-04
DEBUG_STATS_RL:                Wvel (DYNAMICS)  max=  2.18299385766809E-04
DEBUG_STATS_RL:                Wvel (DYNAMICS) mean= -3.58449213339977E-07
DEBUG_STATS_RL:                Wvel (DYNAMICS) S.D.=  2.04428902649885E-05
DEBUG_STATS_RL:               Theta (DYNAMICS)  min= -1.93250363389783E+00
DEBUG_STATS_RL:               Theta (DYNAMICS)  max=  1.32631363173882E+01
DEBUG_STATS_RL:               Theta (DYNAMICS) mean=  2.41867029854828E+00
DEBUG_STATS_RL:               Theta (DYNAMICS) S.D.=  2.57126546321788E+00
DEBUG_STATS_RL:                Salt (DYNAMICS)  min=  2.76143299539290E+01
DEBUG_STATS_RL:                Salt (DYNAMICS)  max=  3.54510577106203E+01
DEBUG_STATS_RL:                Salt (DYNAMICS) mean=  3.39375783473312E+01
DEBUG_STATS_RL:                Salt (DYNAMICS) S.D.=  1.15271478316028E+00
DEBUG_STATS_RL:                  Gu (DYNAMICS)  min= -3.31660092548415E-02
DEBUG_STATS_RL:                  Gu (DYNAMICS)  max=  7.71641715782440E-02
DEBUG_STATS_RL:                  Gu (DYNAMICS) mean=  1.79729889204011E-03
DEBUG_STATS_RL:                  Gu (DYNAMICS) S.D.=  1.23549872720634E-02
DEBUG_STATS_RL:                  Gv (DYNAMICS)  min= -6.51102265928985E-02
DEBUG_STATS_RL:                  Gv (DYNAMICS)  max=  4.74792371894011E-02
DEBUG_STATS_RL:                  Gv (DYNAMICS) mean= -3.61268002204464E-03
DEBUG_STATS_RL:                  Gv (DYNAMICS) S.D.=  1.25565096773440E-02
DEBUG_STATS_RL:               GuNm1 (DYNAMICS)  min= -2.57489899416699E-07
DEBUG_STATS_RL:               GuNm1 (DYNAMICS)  max=  1.89368528479223E-07
DEBUG_STATS_RL:               GuNm1 (DYNAMICS) mean=  4.40117074914298E-12
DEBUG_STATS_RL:               GuNm1 (DYNAMICS) S.D.=  4.68821385830900E-08
DEBUG_STATS_RL:               GvNm1 (DYNAMICS)  min= -1.09603640235138E-07
DEBUG_STATS_RL:               GvNm1 (DYNAMICS)  max=  9.62789262154715E-08
DEBUG_STATS_RL:               GvNm1 (DYNAMICS) mean= -8.49526391148337E-10
DEBUG_STATS_RL:               GvNm1 (DYNAMICS) S.D.=  2.55629549792688E-08
DEBUG_STATS_RL:               GtNm1 (DYNAMICS)  min=  0.00000000000000E+00
DEBUG_STATS_RL:               GtNm1 (DYNAMICS)  max=  0.00000000000000E+00
DEBUG_STATS_RL:               GtNm1 (DYNAMICS) mean=  0.00000000000000E+00
DEBUG_STATS_RL:               GtNm1 (DYNAMICS) S.D.=  0.00000000000000E+00
DEBUG_STATS_RL:               GsNm1 (DYNAMICS)  min=  0.00000000000000E+00
DEBUG_STATS_RL:               GsNm1 (DYNAMICS)  max=  0.00000000000000E+00
DEBUG_STATS_RL:               GsNm1 (DYNAMICS) mean=  0.00000000000000E+00
DEBUG_STATS_RL:               GsNm1 (DYNAMICS) S.D.=  0.00000000000000E+00
DEBUG_STATS_RL:    cg2d_b (SOLVE_FOR_PRESSURE)  min= -7.48820843436696E+03
DEBUG_STATS_RL:    cg2d_b (SOLVE_FOR_PRESSURE)  max=  2.19603477106414E+03
DEBUG_STATS_RL:    cg2d_b (SOLVE_FOR_PRESSURE) mean=  4.15335913809637E-13
DEBUG_STATS_RL:    cg2d_b (SOLVE_FOR_PRESSURE) S.D.=  9.20730314174097E+02
 cg2d: Sum(rhs),rhsMax =   7.65359997600967E-15  1.20522264267550E+00
DEBUG_STATS_RL:    cg2d_x (SOLVE_FOR_PRESSURE)  min= -1.31033012419007E+00
DEBUG_STATS_RL:    cg2d_x (SOLVE_FOR_PRESSURE)  max=  3.14089981025074E+00
DEBUG_STATS_RL:    cg2d_x (SOLVE_FOR_PRESSURE) mean= -2.47876044024574E-02
DEBUG_STATS_RL:    cg2d_x (SOLVE_FOR_PRESSURE) S.D.=  7.62604990072126E-01
DEBUG_STATS_RL:          Uvel (THERMODYNAMICS)  min= -4.51228100181930E-02
DEBUG_STATS_RL:          Uvel (THERMODYNAMICS)  max=  8.23946614697988E-02
DEBUG_STATS_RL:          Uvel (THERMODYNAMICS) mean=  4.46006533351931E-03
DEBUG_STATS_RL:          Uvel (THERMODYNAMICS) S.D.=  1.25503402183559E-02
DEBUG_STATS_RL:          Vvel (THERMODYNAMICS)  min= -5.43131072024233E-02
DEBUG_STATS_RL:          Vvel (THERMODYNAMICS)  max=  6.64710959483286E-02
DEBUG_STATS_RL:          Vvel (THERMODYNAMICS) mean=  9.07394962408162E-04
DEBUG_STATS_RL:          Vvel (THERMODYNAMICS) S.D.=  1.42265213439215E-02
DEBUG_STATS_RL:          Wvel (THERMODYNAMICS)  min= -1.50094143875151E-04
DEBUG_STATS_RL:          Wvel (THERMODYNAMICS)  max=  2.67848367720733E-04
DEBUG_STATS_RL:          Wvel (THERMODYNAMICS) mean= -2.83768310639378E-07
DEBUG_STATS_RL:          Wvel (THERMODYNAMICS) S.D.=  2.30755404976217E-05
DEBUG_STATS_RL:         Theta (THERMODYNAMICS)  min= -1.95323356757650E+00
DEBUG_STATS_RL:         Theta (THERMODYNAMICS)  max=  1.32611729219858E+01
DEBUG_STATS_RL:         Theta (THERMODYNAMICS) mean=  2.41624287435038E+00
DEBUG_STATS_RL:         Theta (THERMODYNAMICS) S.D.=  2.57467251754838E+00
DEBUG_STATS_RL:          Salt (THERMODYNAMICS)  min=  2.76192995644599E+01
DEBUG_STATS_RL:          Salt (THERMODYNAMICS)  max=  3.54511687806856E+01
DEBUG_STATS_RL:          Salt (THERMODYNAMICS) mean=  3.39368869963870E+01
DEBUG_STATS_RL:          Salt (THERMODYNAMICS) S.D.=  1.15395653842071E+00
DEBUG_STATS_RL:         GtNm1 (THERMODYNAMICS)  min=  0.00000000000000E+00
DEBUG_STATS_RL:         GtNm1 (THERMODYNAMICS)  max=  0.00000000000000E+00
DEBUG_STATS_RL:         GtNm1 (THERMODYNAMICS) mean=  0.00000000000000E+00
DEBUG_STATS_RL:         GtNm1 (THERMODYNAMICS) S.D.=  0.00000000000000E+00
DEBUG_STATS_RL:         GsNm1 (THERMODYNAMICS)  min=  0.00000000000000E+00
DEBUG_STATS_RL:         GsNm1 (THERMODYNAMICS)  max=  0.00000000000000E+00
DEBUG_STATS_RL:         GsNm1 (THERMODYNAMICS) mean=  0.00000000000000E+00
DEBUG_STATS_RL:         GsNm1 (THERMODYNAMICS) S.D.=  0.00000000000000E+00
(PID.TID 0000.0001)  MDS_WRITE_FIELD: it,rec,kS,kL,kH=       1     5   1   1   1 file=m_sst_step.0000000001
(PID.TID 0000.0001)  MDS_READ_FIELD: opening global file: xx_atemp.effective.0000000001.data
(PID.TID 0000.0001) EXF_SET_FLD: processing field "climsss",  file: SSS_monthly.labsea1979
(PID.TID 0000.0001) EXF_SET_FLD:   myIter, count0, count1:         4      1      2
(PID.TID 0000.0001) EXF_SET_FLD:   first, changed, fac:   F   F    0.49453551912568305
(PID.TID 0000.0001) EXF_SET_FLD: processing field "uwind",  file: u10m.labsea1979
(PID.TID 0000.0001) EXF_SET_FLD:   myIter, count0, count1:         4      1      2
(PID.TID 0000.0001) EXF_SET_FLD:   first, changed, fac:   F   F    0.49453551912568305
(PID.TID 0000.0001) EXF_SET_FLD: processing field "vwind",  file: v10m.labsea1979
(PID.TID 0000.0001) EXF_SET_FLD:   myIter, count0, count1:         4      1      2
(PID.TID 0000.0001) EXF_SET_FLD:   first, changed, fac:   F   F    0.49453551912568305
(PID.TID 0000.0001) EXF_SET_FLD: processing field "atemp",  file: tair.labsea1979
(PID.TID 0000.0001) EXF_SET_FLD:   myIter, count0, count1:         4      1      2
(PID.TID 0000.0001) EXF_SET_FLD:   first, changed, fac:   F   F    0.49453551912568305
(PID.TID 0000.0001) EXF_SET_FLD: processing field "aqh",  file: qa.labsea1979
(PID.TID 0000.0001) EXF_SET_FLD:   myIter, count0, count1:         4      1      2
(PID.TID 0000.0001) EXF_SET_FLD:   first, changed, fac:   F   F    0.49453551912568305
(PID.TID 0000.0001) EXF_SET_FLD: processing field "precip",  file: prate.labsea1979
(PID.TID 0000.0001) EXF_SET_FLD:   myIter, count0, count1:         4      1      2
(PID.TID 0000.0001) EXF_SET_FLD:   first, changed, fac:   F   F    0.49453551912568305
(PID.TID 0000.0001) EXF_SET_FLD: processing field "swdown",  file: fsh.labsea1979
(PID.TID 0000.0001) EXF_SET_FLD:   myIter, count0, count1:         4      1      2
(PID.TID 0000.0001) EXF_SET_FLD:   first, changed, fac:   F   F    0.49453551912568305
(PID.TID 0000.0001) EXF_SET_FLD: processing field "lwdown",  file: flo.labsea1979
(PID.TID 0000.0001) EXF_SET_FLD:   myIter, count0, count1:         4      1      2
(PID.TID 0000.0001) EXF_SET_FLD:   first, changed, fac:   F   F    0.49453551912568305
DEBUG_STATS_RL: Uice pre  iter (SEAICE_LSR  1)  min= -6.64884179983896E-03
DEBUG_STATS_RL: Uice pre  iter (SEAICE_LSR  1)  max=  1.92542735136311E-01
DEBUG_STATS_RL: Uice pre  iter (SEAICE_LSR  1) mean=  6.47686246163508E-02
DEBUG_STATS_RL: Uice pre  iter (SEAICE_LSR  1) S.D.=  6.59732959909282E-02
DEBUG_STATS_RL: Vice pre  iter (SEAICE_LSR  1)  min= -1.58345599530539E-01
DEBUG_STATS_RL: Vice pre  iter (SEAICE_LSR  1)  max=  1.04255589228154E-01
DEBUG_STATS_RL: Vice pre  iter (SEAICE_LSR  1) mean= -2.61122078454163E-02
DEBUG_STATS_RL: Vice pre  iter (SEAICE_LSR  1) S.D.=  4.54292968520043E-02
DEBUG_STATS_RL: Uice pre  iter (SEAICE_LSR  2)  min= -7.39582706169216E-03
DEBUG_STATS_RL: Uice pre  iter (SEAICE_LSR  2)  max=  2.22032103672184E-01
DEBUG_STATS_RL: Uice pre  iter (SEAICE_LSR  2) mean=  6.99701895633200E-02
DEBUG_STATS_RL: Uice pre  iter (SEAICE_LSR  2) S.D.=  7.26089122439413E-02
DEBUG_STATS_RL: Vice pre  iter (SEAICE_LSR  2)  min= -1.71770480186511E-01
DEBUG_STATS_RL: Vice pre  iter (SEAICE_LSR  2)  max=  1.08496327276557E-01
DEBUG_STATS_RL: Vice pre  iter (SEAICE_LSR  2) mean= -3.10609864818082E-02
DEBUG_STATS_RL: Vice pre  iter (SEAICE_LSR  2) S.D.=  4.99863315299547E-02
DEBUG_STATS_RL:                EtaN (DYNAMICS)  min= -1.33494653835738E-01
DEBUG_STATS_RL:                EtaN (DYNAMICS)  max=  3.19990607833524E-01
DEBUG_STATS_RL:                EtaN (DYNAMICS) mean= -2.52532747895772E-03
DEBUG_STATS_RL:                EtaN (DYNAMICS) S.D.=  7.76931608940998E-02
DEBUG_STATS_RL:                Uvel (DYNAMICS)  min= -4.51228100181930E-02
DEBUG_STATS_RL:                Uvel (DYNAMICS)  max=  8.23946614697988E-02
DEBUG_STATS_RL:                Uvel (DYNAMICS) mean=  4.46006533351931E-03
DEBUG_STATS_RL:                Uvel (DYNAMICS) S.D.=  1.25503402183559E-02
DEBUG_STATS_RL:                Vvel (DYNAMICS)  min= -5.43131072024233E-02
DEBUG_STATS_RL:                Vvel (DYNAMICS)  max=  6.64710959483286E-02
DEBUG_STATS_RL:                Vvel (DYNAMICS) mean=  9.07394962408162E-04
DEBUG_STATS_RL:                Vvel (DYNAMICS) S.D.=  1.42265213439215E-02
DEBUG_STATS_RL:                Wvel (DYNAMICS)  min= -1.50094143875151E-04
DEBUG_STATS_RL:                Wvel (DYNAMICS)  max=  2.67848367720733E-04
DEBUG_STATS_RL:                Wvel (DYNAMICS) mean= -2.83768310639378E-07
DEBUG_STATS_RL:                Wvel (DYNAMICS) S.D.=  2.30755404976217E-05
DEBUG_STATS_RL:               Theta (DYNAMICS)  min= -1.95323356757650E+00
DEBUG_STATS_RL:               Theta (DYNAMICS)  max=  1.32611729219858E+01
DEBUG_STATS_RL:               Theta (DYNAMICS) mean=  2.41624287435038E+00
DEBUG_STATS_RL:               Theta (DYNAMICS) S.D.=  2.57467251754838E+00
DEBUG_STATS_RL:                Salt (DYNAMICS)  min=  2.76192995644599E+01
DEBUG_STATS_RL:                Salt (DYNAMICS)  max=  3.54511687806856E+01
DEBUG_STATS_RL:                Salt (DYNAMICS) mean=  3.39368869963870E+01
DEBUG_STATS_RL:                Salt (DYNAMICS) S.D.=  1.15395653842071E+00
DEBUG_STATS_RL:                  Gu (DYNAMICS)  min= -3.06969616936135E-02
DEBUG_STATS_RL:                  Gu (DYNAMICS)  max=  9.72073114926329E-02
DEBUG_STATS_RL:                  Gu (DYNAMICS) mean=  3.10151082318477E-03
DEBUG_STATS_RL:                  Gu (DYNAMICS) S.D.=  1.41052551008609E-02
DEBUG_STATS_RL:                  Gv (DYNAMICS)  min= -9.53132079799058E-02
DEBUG_STATS_RL:                  Gv (DYNAMICS)  max=  5.33682068181773E-02
DEBUG_STATS_RL:                  Gv (DYNAMICS) mean= -5.06243016752203E-03
DEBUG_STATS_RL:                  Gv (DYNAMICS) S.D.=  1.53588463678917E-02
DEBUG_STATS_RL:               GuNm1 (DYNAMICS)  min= -2.35357489189949E-07
DEBUG_STATS_RL:               GuNm1 (DYNAMICS)  max=  1.71456102315548E-07
DEBUG_STATS_RL:               GuNm1 (DYNAMICS) mean= -2.01481983921417E-09
DEBUG_STATS_RL:               GuNm1 (DYNAMICS) S.D.=  4.45062316312446E-08
DEBUG_STATS_RL:               GvNm1 (DYNAMICS)  min= -1.49109605789109E-07
DEBUG_STATS_RL:               GvNm1 (DYNAMICS)  max=  1.05797935490743E-07
DEBUG_STATS_RL:               GvNm1 (DYNAMICS) mean= -1.04937902583374E-09
DEBUG_STATS_RL:               GvNm1 (DYNAMICS) S.D.=  3.09410614928833E-08
DEBUG_STATS_RL:               GtNm1 (DYNAMICS)  min=  0.00000000000000E+00
DEBUG_STATS_RL:               GtNm1 (DYNAMICS)  max=  0.00000000000000E+00
DEBUG_STATS_RL:               GtNm1 (DYNAMICS) mean=  0.00000000000000E+00
DEBUG_STATS_RL:               GtNm1 (DYNAMICS) S.D.=  0.00000000000000E+00
DEBUG_STATS_RL:               GsNm1 (DYNAMICS)  min=  0.00000000000000E+00
DEBUG_STATS_RL:               GsNm1 (DYNAMICS)  max=  0.00000000000000E+00
DEBUG_STATS_RL:               GsNm1 (DYNAMICS) mean=  0.00000000000000E+00
DEBUG_STATS_RL:               GsNm1 (DYNAMICS) S.D.=  0.00000000000000E+00
DEBUG_STATS_RL:    cg2d_b (SOLVE_FOR_PRESSURE)  min= -7.47095948274236E+03
DEBUG_STATS_RL:    cg2d_b (SOLVE_FOR_PRESSURE)  max=  2.18029189648740E+03
DEBUG_STATS_RL:    cg2d_b (SOLVE_FOR_PRESSURE) mean=  3.78008735424373E-13
DEBUG_STATS_RL:    cg2d_b (SOLVE_FOR_PRESSURE) S.D.=  9.11464014140866E+02
 cg2d: Sum(rhs),rhsMax =   7.12971348626468E-15  1.20244643428833E+00
DEBUG_STATS_RL:    cg2d_x (SOLVE_FOR_PRESSURE)  min= -1.27317826454279E+00
DEBUG_STATS_RL:    cg2d_x (SOLVE_FOR_PRESSURE)  max=  3.19622316797879E+00
DEBUG_STATS_RL:    cg2d_x (SOLVE_FOR_PRESSURE) mean= -2.95294169358369E-02
DEBUG_STATS_RL:    cg2d_x (SOLVE_FOR_PRESSURE) S.D.=  7.40273720373150E-01
DEBUG_STATS_RL:          Uvel (THERMODYNAMICS)  min= -3.64296443204548E-02
DEBUG_STATS_RL:          Uvel (THERMODYNAMICS)  max=  8.91662112566485E-02
DEBUG_STATS_RL:          Uvel (THERMODYNAMICS) mean=  5.18186102505360E-03
DEBUG_STATS_RL:          Uvel (THERMODYNAMICS) S.D.=  1.36791834404125E-02
DEBUG_STATS_RL:          Vvel (THERMODYNAMICS)  min= -8.48427067731111E-02
DEBUG_STATS_RL:          Vvel (THERMODYNAMICS)  max=  7.15709637633438E-02
DEBUG_STATS_RL:          Vvel (THERMODYNAMICS) mean= -6.25663991244248E-04
DEBUG_STATS_RL:          Vvel (THERMODYNAMICS) S.D.=  1.65568599028972E-02
DEBUG_STATS_RL:          Wvel (THERMODYNAMICS)  min= -2.02998023749459E-04
DEBUG_STATS_RL:          Wvel (THERMODYNAMICS)  max=  3.07634744219645E-04
DEBUG_STATS_RL:          Wvel (THERMODYNAMICS) mean= -2.14485636605763E-07
DEBUG_STATS_RL:          Wvel (THERMODYNAMICS) S.D.=  2.56514188295244E-05
DEBUG_STATS_RL:         Theta (THERMODYNAMICS)  min= -1.95891909892377E+00
DEBUG_STATS_RL:         Theta (THERMODYNAMICS)  max=  1.32575107273067E+01
DEBUG_STATS_RL:         Theta (THERMODYNAMICS) mean=  2.41560973729717E+00
DEBUG_STATS_RL:         Theta (THERMODYNAMICS) S.D.=  2.57506629522921E+00
DEBUG_STATS_RL:          Salt (THERMODYNAMICS)  min=  2.76241835718781E+01
DEBUG_STATS_RL:          Salt (THERMODYNAMICS)  max=  3.54512322319690E+01
DEBUG_STATS_RL:          Salt (THERMODYNAMICS) mean=  3.39367610972835E+01
DEBUG_STATS_RL:          Salt (THERMODYNAMICS) S.D.=  1.15400523729621E+00
DEBUG_STATS_RL:         GtNm1 (THERMODYNAMICS)  min=  0.00000000000000E+00
DEBUG_STATS_RL:         GtNm1 (THERMODYNAMICS)  max=  0.00000000000000E+00
DEBUG_STATS_RL:         GtNm1 (THERMODYNAMICS) mean=  0.00000000000000E+00
DEBUG_STATS_RL:         GtNm1 (THERMODYNAMICS) S.D.=  0.00000000000000E+00
DEBUG_STATS_RL:         GsNm1 (THERMODYNAMICS)  min=  0.00000000000000E+00
DEBUG_STATS_RL:         GsNm1 (THERMODYNAMICS)  max=  0.00000000000000E+00
DEBUG_STATS_RL:         GsNm1 (THERMODYNAMICS) mean=  0.00000000000000E+00
DEBUG_STATS_RL:         GsNm1 (THERMODYNAMICS) S.D.=  0.00000000000000E+00
(PID.TID 0000.0001)  MDS_WRITE_FIELD: it,rec,kS,kL,kH=       1     6   1   1   1 file=m_sst_step.0000000001
(PID.TID 0000.0001)  MDS_READ_FIELD: opening global file: xx_atemp.effective.0000000001.data
(PID.TID 0000.0001) EXF_SET_FLD: processing field "climsss",  file: SSS_monthly.labsea1979
(PID.TID 0000.0001) EXF_SET_FLD:   myIter, count0, count1:         5      1      2
(PID.TID 0000.0001) EXF_SET_FLD:   first, changed, fac:   F   F    0.49316939890710387
(PID.TID 0000.0001) EXF_SET_FLD: processing field "uwind",  file: u10m.labsea1979
(PID.TID 0000.0001) EXF_SET_FLD:   myIter, count0, count1:         5      1      2
(PID.TID 0000.0001) EXF_SET_FLD:   first, changed, fac:   F   F    0.49316939890710387
(PID.TID 0000.0001) EXF_SET_FLD: processing field "vwind",  file: v10m.labsea1979
(PID.TID 0000.0001) EXF_SET_FLD:   myIter, count0, count1:         5      1      2
(PID.TID 0000.0001) EXF_SET_FLD:   first, changed, fac:   F   F    0.49316939890710387
(PID.TID 0000.0001) EXF_SET_FLD: processing field "atemp",  file: tair.labsea1979
(PID.TID 0000.0001) EXF_SET_FLD:   myIter, count0, count1:         5      1      2
(PID.TID 0000.0001) EXF_SET_FLD:   first, changed, fac:   F   F    0.49316939890710387
(PID.TID 0000.0001) EXF_SET_FLD: processing field "aqh",  file: qa.labsea1979
(PID.TID 0000.0001) EXF_SET_FLD:   myIter, count0, count1:         5      1      2
(PID.TID 0000.0001) EXF_SET_FLD:   first, changed, fac:   F   F    0.49316939890710387
(PID.TID 0000.0001) EXF_SET_FLD: processing field "precip",  file: prate.labsea1979
(PID.TID 0000.0001) EXF_SET_FLD:   myIter, count0, count1:         5      1      2
(PID.TID 0000.0001) EXF_SET_FLD:   first, changed, fac:   F   F    0.49316939890710387
(PID.TID 0000.0001) EXF_SET_FLD: processing field "swdown",  file: fsh.labsea1979
(PID.TID 0000.0001) EXF_SET_FLD:   myIter, count0, count1:         5      1      2
(PID.TID 0000.0001) EXF_SET_FLD:   first, changed, fac:   F   F    0.49316939890710387
(PID.TID 0000.0001) EXF_SET_FLD: processing field "lwdown",  file: flo.labsea1979
(PID.TID 0000.0001) EXF_SET_FLD:   myIter, count0, count1:         5      1      2
(PID.TID 0000.0001) EXF_SET_FLD:   first, changed, fac:   F   F    0.49316939890710387
DEBUG_STATS_RL: Uice pre  iter (SEAICE_LSR  1)  min= -9.02121933427834E-03
DEBUG_STATS_RL: Uice pre  iter (SEAICE_LSR  1)  max=  2.19445684647109E-01
DEBUG_STATS_RL: Uice pre  iter (SEAICE_LSR  1) mean=  6.96639305502191E-02
DEBUG_STATS_RL: Uice pre  iter (SEAICE_LSR  1) S.D.=  7.25590715279581E-02
DEBUG_STATS_RL: Vice pre  iter (SEAICE_LSR  1)  min= -1.73112057819552E-01
DEBUG_STATS_RL: Vice pre  iter (SEAICE_LSR  1)  max=  1.05174802576007E-01
DEBUG_STATS_RL: Vice pre  iter (SEAICE_LSR  1) mean= -3.44957645454963E-02
DEBUG_STATS_RL: Vice pre  iter (SEAICE_LSR  1) S.D.=  5.17027322840961E-02
DEBUG_STATS_RL: Uice pre  iter (SEAICE_LSR  2)  min= -9.93295031151860E-03
DEBUG_STATS_RL: Uice pre  iter (SEAICE_LSR  2)  max=  2.37649472779152E-01
DEBUG_STATS_RL: Uice pre  iter (SEAICE_LSR  2) mean=  7.08960993522642E-02
DEBUG_STATS_RL: Uice pre  iter (SEAICE_LSR  2) S.D.=  7.51814019583255E-02
DEBUG_STATS_RL: Vice pre  iter (SEAICE_LSR  2)  min= -1.73458139241622E-01
DEBUG_STATS_RL: Vice pre  iter (SEAICE_LSR  2)  max=  1.02503634704981E-01
DEBUG_STATS_RL: Vice pre  iter (SEAICE_LSR  2) mean= -3.89801386768598E-02
DEBUG_STATS_RL: Vice pre  iter (SEAICE_LSR  2) S.D.=  5.44920749393685E-02
DEBUG_STATS_RL:                EtaN (DYNAMICS)  min= -1.29709672821100E-01
DEBUG_STATS_RL:                EtaN (DYNAMICS)  max=  3.25626876398670E-01
DEBUG_STATS_RL:                EtaN (DYNAMICS) mean= -3.00841690124261E-03
DEBUG_STATS_RL:                EtaN (DYNAMICS) S.D.=  7.54180814594268E-02
DEBUG_STATS_RL:                Uvel (DYNAMICS)  min= -3.64296443204548E-02
DEBUG_STATS_RL:                Uvel (DYNAMICS)  max=  8.91662112566485E-02
DEBUG_STATS_RL:                Uvel (DYNAMICS) mean=  5.18186102505360E-03
DEBUG_STATS_RL:                Uvel (DYNAMICS) S.D.=  1.36791834404125E-02
DEBUG_STATS_RL:                Vvel (DYNAMICS)  min= -8.48427067731111E-02
DEBUG_STATS_RL:                Vvel (DYNAMICS)  max=  7.15709637633438E-02
DEBUG_STATS_RL:                Vvel (DYNAMICS) mean= -6.25663991244248E-04
DEBUG_STATS_RL:                Vvel (DYNAMICS) S.D.=  1.65568599028972E-02
DEBUG_STATS_RL:                Wvel (DYNAMICS)  min= -2.02998023749459E-04
DEBUG_STATS_RL:                Wvel (DYNAMICS)  max=  3.07634744219645E-04
DEBUG_STATS_RL:                Wvel (DYNAMICS) mean= -2.14485636605763E-07
DEBUG_STATS_RL:                Wvel (DYNAMICS) S.D.=  2.56514188295244E-05
DEBUG_STATS_RL:               Theta (DYNAMICS)  min= -1.95891909892377E+00
DEBUG_STATS_RL:               Theta (DYNAMICS)  max=  1.32575107273067E+01
DEBUG_STATS_RL:               Theta (DYNAMICS) mean=  2.41560973729717E+00
DEBUG_STATS_RL:               Theta (DYNAMICS) S.D.=  2.57506629522921E+00
DEBUG_STATS_RL:                Salt (DYNAMICS)  min=  2.76241835718781E+01
DEBUG_STATS_RL:                Salt (DYNAMICS)  max=  3.54512322319690E+01
DEBUG_STATS_RL:                Salt (DYNAMICS) mean=  3.39367610972835E+01
DEBUG_STATS_RL:                Salt (DYNAMICS) S.D.=  1.15400523729621E+00
DEBUG_STATS_RL:                  Gu (DYNAMICS)  min= -3.40661284868753E-02
DEBUG_STATS_RL:                  Gu (DYNAMICS)  max=  1.09592409505600E-01
DEBUG_STATS_RL:                  Gu (DYNAMICS) mean=  3.43340148232501E-03
DEBUG_STATS_RL:                  Gu (DYNAMICS) S.D.=  1.52106643070768E-02
DEBUG_STATS_RL:                  Gv (DYNAMICS)  min= -1.19743996000408E-01
DEBUG_STATS_RL:                  Gv (DYNAMICS)  max=  5.31755908727335E-02
DEBUG_STATS_RL:                  Gv (DYNAMICS) mean= -6.43607759843611E-03
DEBUG_STATS_RL:                  Gv (DYNAMICS) S.D.=  1.74595586592875E-02
DEBUG_STATS_RL:               GuNm1 (DYNAMICS)  min= -2.94347299884326E-07
DEBUG_STATS_RL:               GuNm1 (DYNAMICS)  max=  1.78770581560361E-07
DEBUG_STATS_RL:               GuNm1 (DYNAMICS) mean= -3.06311171944972E-09
DEBUG_STATS_RL:               GuNm1 (DYNAMICS) S.D.=  4.19614199163301E-08
DEBUG_STATS_RL:               GvNm1 (DYNAMICS)  min= -1.82273635415884E-07
DEBUG_STATS_RL:               GvNm1 (DYNAMICS)  max=  1.24273330975564E-07
DEBUG_STATS_RL:               GvNm1 (DYNAMICS) mean= -1.05360009952058E-09
DEBUG_STATS_RL:               GvNm1 (DYNAMICS) S.D.=  3.58773704867060E-08
DEBUG_STATS_RL:               GtNm1 (DYNAMICS)  min=  0.00000000000000E+00
DEBUG_STATS_RL:               GtNm1 (DYNAMICS)  max=  0.00000000000000E+00
DEBUG_STATS_RL:               GtNm1 (DYNAMICS) mean=  0.00000000000000E+00
DEBUG_STATS_RL:               GtNm1 (DYNAMICS) S.D.=  0.00000000000000E+00
DEBUG_STATS_RL:               GsNm1 (DYNAMICS)  min=  0.00000000000000E+00
DEBUG_STATS_RL:               GsNm1 (DYNAMICS)  max=  0.00000000000000E+00
DEBUG_STATS_RL:               GsNm1 (DYNAMICS) mean=  0.00000000000000E+00
DEBUG_STATS_RL:               GsNm1 (DYNAMICS) S.D.=  0.00000000000000E+00
DEBUG_STATS_RL:    cg2d_b (SOLVE_FOR_PRESSURE)  min= -7.45833771571510E+03
DEBUG_STATS_RL:    cg2d_b (SOLVE_FOR_PRESSURE)  max=  2.17494903027701E+03
DEBUG_STATS_RL:    cg2d_b (SOLVE_FOR_PRESSURE) mean=  5.55928636458702E-13
DEBUG_STATS_RL:    cg2d_b (SOLVE_FOR_PRESSURE) S.D.=  9.06377010650601E+02
 cg2d: Sum(rhs),rhsMax =   1.17024445689395E-14  1.20041496847842E+00
DEBUG_STATS_RL:    cg2d_x (SOLVE_FOR_PRESSURE)  min= -1.23196163368047E+00
DEBUG_STATS_RL:    cg2d_x (SOLVE_FOR_PRESSURE)  max=  3.23727429690049E+00
DEBUG_STATS_RL:    cg2d_x (SOLVE_FOR_PRESSURE) mean= -3.45194761149770E-02
DEBUG_STATS_RL:    cg2d_x (SOLVE_FOR_PRESSURE) S.D.=  7.10912240392942E-01
DEBUG_STATS_RL:          Uvel (THERMODYNAMICS)  min= -3.59096386964130E-02
DEBUG_STATS_RL:          Uvel (THERMODYNAMICS)  max=  1.01288605318195E-01
DEBUG_STATS_RL:          Uvel (THERMODYNAMICS) mean=  5.06442107691542E-03
DEBUG_STATS_RL:          Uvel (THERMODYNAMICS) S.D.=  1.40087544095656E-02
DEBUG_STATS_RL:          Vvel (THERMODYNAMICS)  min= -1.10756263988770E-01
DEBUG_STATS_RL:          Vvel (THERMODYNAMICS)  max=  7.07208418107746E-02
DEBUG_STATS_RL:          Vvel (THERMODYNAMICS) mean= -2.17557054827599E-03
DEBUG_STATS_RL:          Vvel (THERMODYNAMICS) S.D.=  1.80912833066038E-02
DEBUG_STATS_RL:          Wvel (THERMODYNAMICS)  min= -2.43811460414301E-04
DEBUG_STATS_RL:          Wvel (THERMODYNAMICS)  max=  3.28816353261804E-04
DEBUG_STATS_RL:          Wvel (THERMODYNAMICS) mean= -1.37923543342753E-07
DEBUG_STATS_RL:          Wvel (THERMODYNAMICS) S.D.=  2.75149300864473E-05
DEBUG_STATS_RL:         Theta (THERMODYNAMICS)  min= -1.96015217723738E+00
DEBUG_STATS_RL:         Theta (THERMODYNAMICS)  max=  1.32512671183370E+01
DEBUG_STATS_RL:         Theta (THERMODYNAMICS) mean=  2.41531606071968E+00
DEBUG_STATS_RL:         Theta (THERMODYNAMICS) S.D.=  2.57483151675911E+00
DEBUG_STATS_RL:          Salt (THERMODYNAMICS)  min=  2.76290307531745E+01
DEBUG_STATS_RL:          Salt (THERMODYNAMICS)  max=  3.54512307060718E+01
DEBUG_STATS_RL:          Salt (THERMODYNAMICS) mean=  3.39367446276246E+01
DEBUG_STATS_RL:          Salt (THERMODYNAMICS) S.D.=  1.15382313156652E+00
DEBUG_STATS_RL:         GtNm1 (THERMODYNAMICS)  min=  0.00000000000000E+00
DEBUG_STATS_RL:         GtNm1 (THERMODYNAMICS)  max=  0.00000000000000E+00
DEBUG_STATS_RL:         GtNm1 (THERMODYNAMICS) mean=  0.00000000000000E+00
DEBUG_STATS_RL:         GtNm1 (THERMODYNAMICS) S.D.=  0.00000000000000E+00
DEBUG_STATS_RL:         GsNm1 (THERMODYNAMICS)  min=  0.00000000000000E+00
DEBUG_STATS_RL:         GsNm1 (THERMODYNAMICS)  max=  0.00000000000000E+00
DEBUG_STATS_RL:         GsNm1 (THERMODYNAMICS) mean=  0.00000000000000E+00
DEBUG_STATS_RL:         GsNm1 (THERMODYNAMICS) S.D.=  0.00000000000000E+00
(PID.TID 0000.0001)  MDS_WRITE_FIELD: it,rec,kS,kL,kH=       1     7   1   1   1 file=m_sst_step.0000000001
(PID.TID 0000.0001)  MDS_READ_FIELD: opening global file: xx_atemp.effective.0000000001.data
(PID.TID 0000.0001) EXF_SET_FLD: processing field "climsss",  file: SSS_monthly.labsea1979
(PID.TID 0000.0001) EXF_SET_FLD:   myIter, count0, count1:         6      1      2
(PID.TID 0000.0001) EXF_SET_FLD:   first, changed, fac:   F   F    0.49180327868852458
(PID.TID 0000.0001) EXF_SET_FLD: processing field "uwind",  file: u10m.labsea1979
(PID.TID 0000.0001) EXF_SET_FLD:   myIter, count0, count1:         6      1      2
(PID.TID 0000.0001) EXF_SET_FLD:   first, changed, fac:   F   F    0.49180327868852458
(PID.TID 0000.0001) EXF_SET_FLD: processing field "vwind",  file: v10m.labsea1979
(PID.TID 0000.0001) EXF_SET_FLD:   myIter, count0, count1:         6      1      2
(PID.TID 0000.0001) EXF_SET_FLD:   first, changed, fac:   F   F    0.49180327868852458
(PID.TID 0000.0001) EXF_SET_FLD: processing field "atemp",  file: tair.labsea1979
(PID.TID 0000.0001) EXF_SET_FLD:   myIter, count0, count1:         6      1      2
(PID.TID 0000.0001) EXF_SET_FLD:   first, changed, fac:   F   F    0.49180327868852458
(PID.TID 0000.0001) EXF_SET_FLD: processing field "aqh",  file: qa.labsea1979
(PID.TID 0000.0001) EXF_SET_FLD:   myIter, count0, count1:         6      1      2
(PID.TID 0000.0001) EXF_SET_FLD:   first, changed, fac:   F   F    0.49180327868852458
(PID.TID 0000.0001) EXF_SET_FLD: processing field "precip",  file: prate.labsea1979
(PID.TID 0000.0001) EXF_SET_FLD:   myIter, count0, count1:         6      1      2
(PID.TID 0000.0001) EXF_SET_FLD:   first, changed, fac:   F   F    0.49180327868852458
(PID.TID 0000.0001) EXF_SET_FLD: processing field "swdown",  file: fsh.labsea1979
(PID.TID 0000.0001) EXF_SET_FLD:   myIter, count0, count1:         6      1      2
(PID.TID 0000.0001) EXF_SET_FLD:   first, changed, fac:   F   F    0.49180327868852458
(PID.TID 0000.0001) EXF_SET_FLD: processing field "lwdown",  file: flo.labsea1979
(PID.TID 0000.0001) EXF_SET_FLD:   myIter, count0, count1:         6      1      2
(PID.TID 0000.0001) EXF_SET_FLD:   first, changed, fac:   F   F    0.49180327868852458
DEBUG_STATS_RL: Uice pre  iter (SEAICE_LSR  1)  min= -1.19106759196583E-02
DEBUG_STATS_RL: Uice pre  iter (SEAICE_LSR  1)  max=  2.40859973799500E-01
DEBUG_STATS_RL: Uice pre  iter (SEAICE_LSR  1) mean=  7.02597534860761E-02
DEBUG_STATS_RL: Uice pre  iter (SEAICE_LSR  1) S.D.=  7.57773428259204E-02
DEBUG_STATS_RL: Vice pre  iter (SEAICE_LSR  1)  min= -1.74132342678203E-01
DEBUG_STATS_RL: Vice pre  iter (SEAICE_LSR  1)  max=  9.66358613081391E-02
DEBUG_STATS_RL: Vice pre  iter (SEAICE_LSR  1) mean= -4.28491368242540E-02
DEBUG_STATS_RL: Vice pre  iter (SEAICE_LSR  1) S.D.=  5.63763392290134E-02
DEBUG_STATS_RL: Uice pre  iter (SEAICE_LSR  2)  min= -1.30564509125725E-02
DEBUG_STATS_RL: Uice pre  iter (SEAICE_LSR  2)  max=  2.47901039964918E-01
DEBUG_STATS_RL: Uice pre  iter (SEAICE_LSR  2) mean=  6.80717062410335E-02
DEBUG_STATS_RL: Uice pre  iter (SEAICE_LSR  2) S.D.=  7.48548542542059E-02
DEBUG_STATS_RL: Vice pre  iter (SEAICE_LSR  2)  min= -1.68314830999126E-01
DEBUG_STATS_RL: Vice pre  iter (SEAICE_LSR  2)  max=  8.87290074915898E-02
DEBUG_STATS_RL: Vice pre  iter (SEAICE_LSR  2) mean= -4.61137817409295E-02
DEBUG_STATS_RL: Vice pre  iter (SEAICE_LSR  2) S.D.=  5.74118961795007E-02
DEBUG_STATS_RL:                EtaN (DYNAMICS)  min= -1.25510578434377E-01
DEBUG_STATS_RL:                EtaN (DYNAMICS)  max=  3.29809109672408E-01
DEBUG_STATS_RL:                EtaN (DYNAMICS) mean= -3.51679735471871E-03
DEBUG_STATS_RL:                EtaN (DYNAMICS) S.D.=  7.24267737471924E-02
DEBUG_STATS_RL:                Uvel (DYNAMICS)  min= -3.59096386964130E-02
DEBUG_STATS_RL:                Uvel (DYNAMICS)  max=  1.01288605318195E-01
DEBUG_STATS_RL:                Uvel (DYNAMICS) mean=  5.06442107691542E-03
DEBUG_STATS_RL:                Uvel (DYNAMICS) S.D.=  1.40087544095656E-02
DEBUG_STATS_RL:                Vvel (DYNAMICS)  min= -1.10756263988770E-01
DEBUG_STATS_RL:                Vvel (DYNAMICS)  max=  7.07208418107746E-02
DEBUG_STATS_RL:                Vvel (DYNAMICS) mean= -2.17557054827599E-03
DEBUG_STATS_RL:                Vvel (DYNAMICS) S.D.=  1.80912833066038E-02
DEBUG_STATS_RL:                Wvel (DYNAMICS)  min= -2.43811460414301E-04
DEBUG_STATS_RL:                Wvel (DYNAMICS)  max=  3.28816353261804E-04
DEBUG_STATS_RL:                Wvel (DYNAMICS) mean= -1.37923543342753E-07
DEBUG_STATS_RL:                Wvel (DYNAMICS) S.D.=  2.75149300864473E-05
DEBUG_STATS_RL:               Theta (DYNAMICS)  min= -1.96015217723738E+00
DEBUG_STATS_RL:               Theta (DYNAMICS)  max=  1.32512671183370E+01
DEBUG_STATS_RL:               Theta (DYNAMICS) mean=  2.41531606071968E+00
DEBUG_STATS_RL:               Theta (DYNAMICS) S.D.=  2.57483151675911E+00
DEBUG_STATS_RL:                Salt (DYNAMICS)  min=  2.76290307531745E+01
DEBUG_STATS_RL:                Salt (DYNAMICS)  max=  3.54512307060718E+01
DEBUG_STATS_RL:                Salt (DYNAMICS) mean=  3.39367446276246E+01
DEBUG_STATS_RL:                Salt (DYNAMICS) S.D.=  1.15382313156652E+00
DEBUG_STATS_RL:                  Gu (DYNAMICS)  min= -4.45840116878942E-02
DEBUG_STATS_RL:                  Gu (DYNAMICS)  max=  1.13252404039500E-01
DEBUG_STATS_RL:                  Gu (DYNAMICS) mean=  3.02808241162180E-03
DEBUG_STATS_RL:                  Gu (DYNAMICS) S.D.=  1.59063121238712E-02
DEBUG_STATS_RL:                  Gv (DYNAMICS)  min= -1.34630447324842E-01
DEBUG_STATS_RL:                  Gv (DYNAMICS)  max=  4.81174890382835E-02
DEBUG_STATS_RL:                  Gv (DYNAMICS) mean= -7.41639241985803E-03
DEBUG_STATS_RL:                  Gv (DYNAMICS) S.D.=  1.85638365104503E-02
DEBUG_STATS_RL:               GuNm1 (DYNAMICS)  min= -3.33271036892913E-07
DEBUG_STATS_RL:               GuNm1 (DYNAMICS)  max=  1.87479663955270E-07
DEBUG_STATS_RL:               GuNm1 (DYNAMICS) mean= -3.31200046769561E-09
DEBUG_STATS_RL:               GuNm1 (DYNAMICS) S.D.=  4.08419141882016E-08
DEBUG_STATS_RL:               GvNm1 (DYNAMICS)  min= -2.04912919624494E-07
DEBUG_STATS_RL:               GvNm1 (DYNAMICS)  max=  1.56710147054461E-07
DEBUG_STATS_RL:               GvNm1 (DYNAMICS) mean= -8.96938696732125E-10
DEBUG_STATS_RL:               GvNm1 (DYNAMICS) S.D.=  3.95873164869924E-08
DEBUG_STATS_RL:               GtNm1 (DYNAMICS)  min=  0.00000000000000E+00
DEBUG_STATS_RL:               GtNm1 (DYNAMICS)  max=  0.00000000000000E+00
DEBUG_STATS_RL:               GtNm1 (DYNAMICS) mean=  0.00000000000000E+00
DEBUG_STATS_RL:               GtNm1 (DYNAMICS) S.D.=  0.00000000000000E+00
DEBUG_STATS_RL:               GsNm1 (DYNAMICS)  min=  0.00000000000000E+00
DEBUG_STATS_RL:               GsNm1 (DYNAMICS)  max=  0.00000000000000E+00
DEBUG_STATS_RL:               GsNm1 (DYNAMICS) mean=  0.00000000000000E+00
DEBUG_STATS_RL:               GsNm1 (DYNAMICS) S.D.=  0.00000000000000E+00
DEBUG_STATS_RL:    cg2d_b (SOLVE_FOR_PRESSURE)  min= -7.43169656861297E+03
DEBUG_STATS_RL:    cg2d_b (SOLVE_FOR_PRESSURE)  max=  2.17598296942610E+03
DEBUG_STATS_RL:    cg2d_b (SOLVE_FOR_PRESSURE) mean=  7.38206532939027E-13
DEBUG_STATS_RL:    cg2d_b (SOLVE_FOR_PRESSURE) S.D.=  9.02750100850164E+02
 cg2d: Sum(rhs),rhsMax =   1.43149381237606E-14  1.19612709187940E+00
DEBUG_STATS_RL:    cg2d_x (SOLVE_FOR_PRESSURE)  min= -1.18794061890834E+00
DEBUG_STATS_RL:    cg2d_x (SOLVE_FOR_PRESSURE)  max=  3.24511049575914E+00
DEBUG_STATS_RL:    cg2d_x (SOLVE_FOR_PRESSURE) mean= -3.88654400027010E-02
DEBUG_STATS_RL:    cg2d_x (SOLVE_FOR_PRESSURE) S.D.=  6.81167535252690E-01
DEBUG_STATS_RL:          Uvel (THERMODYNAMICS)  min= -3.57601727924396E-02
DEBUG_STATS_RL:          Uvel (THERMODYNAMICS)  max=  1.04775938290593E-01
DEBUG_STATS_RL:          Uvel (THERMODYNAMICS) mean=  4.39725630125317E-03
DEBUG_STATS_RL:          Uvel (THERMODYNAMICS) S.D.=  1.39028540310292E-02
DEBUG_STATS_RL:          Vvel (THERMODYNAMICS)  min= -1.27584762387742E-01
DEBUG_STATS_RL:          Vvel (THERMODYNAMICS)  max=  6.50083276838838E-02
DEBUG_STATS_RL:          Vvel (THERMODYNAMICS) mean= -3.36887217581068E-03
DEBUG_STATS_RL:          Vvel (THERMODYNAMICS) S.D.=  1.85890275649899E-02
DEBUG_STATS_RL:          Wvel (THERMODYNAMICS)  min= -2.67954696014339E-04
DEBUG_STATS_RL:          Wvel (THERMODYNAMICS)  max=  3.29804232734305E-04
DEBUG_STATS_RL:          Wvel (THERMODYNAMICS) mean= -4.85616750760053E-08
DEBUG_STATS_RL:          Wvel (THERMODYNAMICS) S.D.=  2.84164537902802E-05
DEBUG_STATS_RL:         Theta (THERMODYNAMICS)  min= -1.95963016104375E+00
DEBUG_STATS_RL:         Theta (THERMODYNAMICS)  max=  1.32396343409663E+01
DEBUG_STATS_RL:         Theta (THERMODYNAMICS) mean=  2.41506584132489E+00
DEBUG_STATS_RL:         Theta (THERMODYNAMICS) S.D.=  2.57443936967394E+00
DEBUG_STATS_RL:          Salt (THERMODYNAMICS)  min=  2.76338867569799E+01
DEBUG_STATS_RL:          Salt (THERMODYNAMICS)  max=  3.54511617149686E+01
DEBUG_STATS_RL:          Salt (THERMODYNAMICS) mean=  3.39367496241634E+01
DEBUG_STATS_RL:          Salt (THERMODYNAMICS) S.D.=  1.15359229307485E+00
DEBUG_STATS_RL:         GtNm1 (THERMODYNAMICS)  min=  0.00000000000000E+00
DEBUG_STATS_RL:         GtNm1 (THERMODYNAMICS)  max=  0.00000000000000E+00
DEBUG_STATS_RL:         GtNm1 (THERMODYNAMICS) mean=  0.00000000000000E+00
DEBUG_STATS_RL:         GtNm1 (THERMODYNAMICS) S.D.=  0.00000000000000E+00
DEBUG_STATS_RL:         GsNm1 (THERMODYNAMICS)  min=  0.00000000000000E+00
DEBUG_STATS_RL:         GsNm1 (THERMODYNAMICS)  max=  0.00000000000000E+00
DEBUG_STATS_RL:         GsNm1 (THERMODYNAMICS) mean=  0.00000000000000E+00
DEBUG_STATS_RL:         GsNm1 (THERMODYNAMICS) S.D.=  0.00000000000000E+00
(PID.TID 0000.0001)  MDS_WRITE_FIELD: it,rec,kS,kL,kH=       1     8   1   1   1 file=m_sst_step.0000000001
(PID.TID 0000.0001)  MDS_READ_FIELD: opening global file: xx_atemp.effective.0000000001.data
(PID.TID 0000.0001) EXF_SET_FLD: processing field "climsss",  file: SSS_monthly.labsea1979
(PID.TID 0000.0001) EXF_SET_FLD:   myIter, count0, count1:         7      1      2
(PID.TID 0000.0001) EXF_SET_FLD:   first, changed, fac:   F   F    0.49043715846994540
(PID.TID 0000.0001) EXF_SET_FLD: processing field "uwind",  file: u10m.labsea1979
(PID.TID 0000.0001) EXF_SET_FLD:   myIter, count0, count1:         7      1      2
(PID.TID 0000.0001) EXF_SET_FLD:   first, changed, fac:   F   F    0.49043715846994540
(PID.TID 0000.0001) EXF_SET_FLD: processing field "vwind",  file: v10m.labsea1979
(PID.TID 0000.0001) EXF_SET_FLD:   myIter, count0, count1:         7      1      2
(PID.TID 0000.0001) EXF_SET_FLD:   first, changed, fac:   F   F    0.49043715846994540
(PID.TID 0000.0001) EXF_SET_FLD: processing field "atemp",  file: tair.labsea1979
(PID.TID 0000.0001) EXF_SET_FLD:   myIter, count0, count1:         7      1      2
(PID.TID 0000.0001) EXF_SET_FLD:   first, changed, fac:   F   F    0.49043715846994540
(PID.TID 0000.0001) EXF_SET_FLD: processing field "aqh",  file: qa.labsea1979
(PID.TID 0000.0001) EXF_SET_FLD:   myIter, count0, count1:         7      1      2
(PID.TID 0000.0001) EXF_SET_FLD:   first, changed, fac:   F   F    0.49043715846994540
(PID.TID 0000.0001) EXF_SET_FLD: processing field "precip",  file: prate.labsea1979
(PID.TID 0000.0001) EXF_SET_FLD:   myIter, count0, count1:         7      1      2
(PID.TID 0000.0001) EXF_SET_FLD:   first, changed, fac:   F   F    0.49043715846994540
(PID.TID 0000.0001) EXF_SET_FLD: processing field "swdown",  file: fsh.labsea1979
(PID.TID 0000.0001) EXF_SET_FLD:   myIter, count0, count1:         7      1      2
(PID.TID 0000.0001) EXF_SET_FLD:   first, changed, fac:   F   F    0.49043715846994540
(PID.TID 0000.0001) EXF_SET_FLD: processing field "lwdown",  file: flo.labsea1979
(PID.TID 0000.0001) EXF_SET_FLD:   myIter, count0, count1:         7      1      2
(PID.TID 0000.0001) EXF_SET_FLD:   first, changed, fac:   F   F    0.49043715846994540
DEBUG_STATS_RL: Uice pre  iter (SEAICE_LSR  1)  min= -1.54549194525835E-02
DEBUG_STATS_RL: Uice pre  iter (SEAICE_LSR  1)  max=  2.53524286292196E-01
DEBUG_STATS_RL: Uice pre  iter (SEAICE_LSR  1) mean=  6.68799365320219E-02
DEBUG_STATS_RL: Uice pre  iter (SEAICE_LSR  1) S.D.=  7.54478852962054E-02
DEBUG_STATS_RL: Vice pre  iter (SEAICE_LSR  1)  min= -1.68373183019774E-01
DEBUG_STATS_RL: Vice pre  iter (SEAICE_LSR  1)  max=  8.10859368452303E-02
DEBUG_STATS_RL: Vice pre  iter (SEAICE_LSR  1) mean= -4.94905385200698E-02
DEBUG_STATS_RL: Vice pre  iter (SEAICE_LSR  1) S.D.=  5.89447951202010E-02
DEBUG_STATS_RL: Uice pre  iter (SEAICE_LSR  2)  min= -1.68104910559736E-02
DEBUG_STATS_RL: Uice pre  iter (SEAICE_LSR  2)  max=  2.51381266335641E-01
DEBUG_STATS_RL: Uice pre  iter (SEAICE_LSR  2) mean=  6.26056742417510E-02
DEBUG_STATS_RL: Uice pre  iter (SEAICE_LSR  2) S.D.=  7.23215228186013E-02
DEBUG_STATS_RL: Vice pre  iter (SEAICE_LSR  2)  min= -1.70146515865909E-01
DEBUG_STATS_RL: Vice pre  iter (SEAICE_LSR  2)  max=  7.01571636850261E-02
DEBUG_STATS_RL: Vice pre  iter (SEAICE_LSR  2) mean= -5.12009841743686E-02
DEBUG_STATS_RL: Vice pre  iter (SEAICE_LSR  2) S.D.=  5.84735965011004E-02
DEBUG_STATS_RL:                EtaN (DYNAMICS)  min= -1.21025777222822E-01
DEBUG_STATS_RL:                EtaN (DYNAMICS)  max=  3.30607450971835E-01
DEBUG_STATS_RL:                EtaN (DYNAMICS) mean= -3.95955825448276E-03
DEBUG_STATS_RL:                EtaN (DYNAMICS) S.D.=  6.93964235760106E-02
DEBUG_STATS_RL:                Uvel (DYNAMICS)  min= -3.57601727924396E-02
DEBUG_STATS_RL:                Uvel (DYNAMICS)  max=  1.04775938290593E-01
DEBUG_STATS_RL:                Uvel (DYNAMICS) mean=  4.39725630125317E-03
DEBUG_STATS_RL:                Uvel (DYNAMICS) S.D.=  1.39028540310292E-02
DEBUG_STATS_RL:                Vvel (DYNAMICS)  min= -1.27584762387742E-01
DEBUG_STATS_RL:                Vvel (DYNAMICS)  max=  6.50083276838838E-02
DEBUG_STATS_RL:                Vvel (DYNAMICS) mean= -3.36887217581068E-03
DEBUG_STATS_RL:                Vvel (DYNAMICS) S.D.=  1.85890275649899E-02
DEBUG_STATS_RL:                Wvel (DYNAMICS)  min= -2.67954696014339E-04
DEBUG_STATS_RL:                Wvel (DYNAMICS)  max=  3.29804232734305E-04
DEBUG_STATS_RL:                Wvel (DYNAMICS) mean= -4.85616750760053E-08
DEBUG_STATS_RL:                Wvel (DYNAMICS) S.D.=  2.84164537902802E-05
DEBUG_STATS_RL:               Theta (DYNAMICS)  min= -1.95963016104375E+00
DEBUG_STATS_RL:               Theta (DYNAMICS)  max=  1.32396343409663E+01
DEBUG_STATS_RL:               Theta (DYNAMICS) mean=  2.41506584132489E+00
DEBUG_STATS_RL:               Theta (DYNAMICS) S.D.=  2.57443936967394E+00
DEBUG_STATS_RL:                Salt (DYNAMICS)  min=  2.76338867569799E+01
DEBUG_STATS_RL:                Salt (DYNAMICS)  max=  3.54511617149686E+01
DEBUG_STATS_RL:                Salt (DYNAMICS) mean=  3.39367496241634E+01
DEBUG_STATS_RL:                Salt (DYNAMICS) S.D.=  1.15359229307485E+00
DEBUG_STATS_RL:                  Gu (DYNAMICS)  min= -5.18639383651821E-02
DEBUG_STATS_RL:                  Gu (DYNAMICS)  max=  1.08500044377570E-01
DEBUG_STATS_RL:                  Gu (DYNAMICS) mean=  2.22152146946407E-03
DEBUG_STATS_RL:                  Gu (DYNAMICS) S.D.=  1.62488741545042E-02
DEBUG_STATS_RL:                  Gv (DYNAMICS)  min= -1.40216393355432E-01
DEBUG_STATS_RL:                  Gv (DYNAMICS)  max=  4.07135165171940E-02
DEBUG_STATS_RL:                  Gv (DYNAMICS) mean= -7.84361289824548E-03
DEBUG_STATS_RL:                  Gv (DYNAMICS) S.D.=  1.86090017356182E-02
DEBUG_STATS_RL:               GuNm1 (DYNAMICS)  min= -3.48473911940040E-07
DEBUG_STATS_RL:               GuNm1 (DYNAMICS)  max=  1.90416017948030E-07
DEBUG_STATS_RL:               GuNm1 (DYNAMICS) mean= -3.12306477013676E-09
DEBUG_STATS_RL:               GuNm1 (DYNAMICS) S.D.=  4.09417632400247E-08
DEBUG_STATS_RL:               GvNm1 (DYNAMICS)  min= -2.15359173477232E-07
DEBUG_STATS_RL:               GvNm1 (DYNAMICS)  max=  1.82438063099987E-07
DEBUG_STATS_RL:               GvNm1 (DYNAMICS) mean= -6.53519601922135E-10
DEBUG_STATS_RL:               GvNm1 (DYNAMICS) S.D.=  4.16452354555374E-08
DEBUG_STATS_RL:               GtNm1 (DYNAMICS)  min=  0.00000000000000E+00
DEBUG_STATS_RL:               GtNm1 (DYNAMICS)  max=  0.00000000000000E+00
DEBUG_STATS_RL:               GtNm1 (DYNAMICS) mean=  0.00000000000000E+00
DEBUG_STATS_RL:               GtNm1 (DYNAMICS) S.D.=  0.00000000000000E+00
DEBUG_STATS_RL:               GsNm1 (DYNAMICS)  min=  0.00000000000000E+00
DEBUG_STATS_RL:               GsNm1 (DYNAMICS)  max=  0.00000000000000E+00
DEBUG_STATS_RL:               GsNm1 (DYNAMICS) mean=  0.00000000000000E+00
DEBUG_STATS_RL:               GsNm1 (DYNAMICS) S.D.=  0.00000000000000E+00
DEBUG_STATS_RL:    cg2d_b (SOLVE_FOR_PRESSURE)  min= -7.37985604508166E+03
DEBUG_STATS_RL:    cg2d_b (SOLVE_FOR_PRESSURE)  max=  2.18366607280396E+03
DEBUG_STATS_RL:    cg2d_b (SOLVE_FOR_PRESSURE) mean=  6.47636018887473E-13
DEBUG_STATS_RL:    cg2d_b (SOLVE_FOR_PRESSURE) S.D.=  8.98963545839999E+02
 cg2d: Sum(rhs),rhsMax =   1.43669798280399E-14  1.18778339080381E+00
DEBUG_STATS_RL:    cg2d_x (SOLVE_FOR_PRESSURE)  min= -1.13929441834576E+00
DEBUG_STATS_RL:    cg2d_x (SOLVE_FOR_PRESSURE)  max=  3.20616731162410E+00
DEBUG_STATS_RL:    cg2d_x (SOLVE_FOR_PRESSURE) mean= -4.15672442272131E-02
DEBUG_STATS_RL:    cg2d_x (SOLVE_FOR_PRESSURE) S.D.=  6.51074617232570E-01
DEBUG_STATS_RL:          Uvel (THERMODYNAMICS)  min= -4.34802359612065E-02
DEBUG_STATS_RL:          Uvel (THERMODYNAMICS)  max=  9.99752242998818E-02
DEBUG_STATS_RL:          Uvel (THERMODYNAMICS) mean=  3.48264152590141E-03
DEBUG_STATS_RL:          Uvel (THERMODYNAMICS) S.D.=  1.35343125506011E-02
DEBUG_STATS_RL:          Vvel (THERMODYNAMICS)  min= -1.33439207289232E-01
DEBUG_STATS_RL:          Vvel (THERMODYNAMICS)  max=  5.60260700766956E-02
DEBUG_STATS_RL:          Vvel (THERMODYNAMICS) mean= -4.02696574872079E-03
DEBUG_STATS_RL:          Vvel (THERMODYNAMICS) S.D.=  1.80273334212582E-02
DEBUG_STATS_RL:          Wvel (THERMODYNAMICS)  min= -2.73348162229361E-04
DEBUG_STATS_RL:          Wvel (THERMODYNAMICS)  max=  3.13596923283673E-04
DEBUG_STATS_RL:          Wvel (THERMODYNAMICS) mean=  4.73709411324699E-08
DEBUG_STATS_RL:          Wvel (THERMODYNAMICS) S.D.=  2.82661454219200E-05
DEBUG_STATS_RL:         Theta (THERMODYNAMICS)  min= -1.95943609422386E+00
DEBUG_STATS_RL:         Theta (THERMODYNAMICS)  max=  1.32225113409296E+01
DEBUG_STATS_RL:         Theta (THERMODYNAMICS) mean=  2.41480286619417E+00
DEBUG_STATS_RL:         Theta (THERMODYNAMICS) S.D.=  2.57398860030337E+00
DEBUG_STATS_RL:          Salt (THERMODYNAMICS)  min=  2.76387468555707E+01
DEBUG_STATS_RL:          Salt (THERMODYNAMICS)  max=  3.54510358217953E+01
DEBUG_STATS_RL:          Salt (THERMODYNAMICS) mean=  3.39367601804954E+01
DEBUG_STATS_RL:          Salt (THERMODYNAMICS) S.D.=  1.15334890349576E+00
DEBUG_STATS_RL:         GtNm1 (THERMODYNAMICS)  min=  0.00000000000000E+00
DEBUG_STATS_RL:         GtNm1 (THERMODYNAMICS)  max=  0.00000000000000E+00
DEBUG_STATS_RL:         GtNm1 (THERMODYNAMICS) mean=  0.00000000000000E+00
DEBUG_STATS_RL:         GtNm1 (THERMODYNAMICS) S.D.=  0.00000000000000E+00
DEBUG_STATS_RL:         GsNm1 (THERMODYNAMICS)  min=  0.00000000000000E+00
DEBUG_STATS_RL:         GsNm1 (THERMODYNAMICS)  max=  0.00000000000000E+00
DEBUG_STATS_RL:         GsNm1 (THERMODYNAMICS) mean=  0.00000000000000E+00
DEBUG_STATS_RL:         GsNm1 (THERMODYNAMICS) S.D.=  0.00000000000000E+00
(PID.TID 0000.0001)  MDS_WRITE_FIELD: it,rec,kS,kL,kH=       1     9   1   1   1 file=m_sst_step.0000000001
(PID.TID 0000.0001)  MDS_READ_FIELD: opening global file: xx_atemp.effective.0000000001.data
(PID.TID 0000.0001) EXF_SET_FLD: processing field "climsss",  file: SSS_monthly.labsea1979
(PID.TID 0000.0001) EXF_SET_FLD:   myIter, count0, count1:         8      1      2
(PID.TID 0000.0001) EXF_SET_FLD:   first, changed, fac:   F   F    0.48907103825136611
(PID.TID 0000.0001) EXF_SET_FLD: processing field "uwind",  file: u10m.labsea1979
(PID.TID 0000.0001) EXF_SET_FLD:   myIter, count0, count1:         8      1      2
(PID.TID 0000.0001) EXF_SET_FLD:   first, changed, fac:   F   F    0.48907103825136611
(PID.TID 0000.0001) EXF_SET_FLD: processing field "vwind",  file: v10m.labsea1979
(PID.TID 0000.0001) EXF_SET_FLD:   myIter, count0, count1:         8      1      2
(PID.TID 0000.0001) EXF_SET_FLD:   first, changed, fac:   F   F    0.48907103825136611
(PID.TID 0000.0001) EXF_SET_FLD: processing field "atemp",  file: tair.labsea1979
(PID.TID 0000.0001) EXF_SET_FLD:   myIter, count0, count1:         8      1      2
(PID.TID 0000.0001) EXF_SET_FLD:   first, changed, fac:   F   F    0.48907103825136611
(PID.TID 0000.0001) EXF_SET_FLD: processing field "aqh",  file: qa.labsea1979
(PID.TID 0000.0001) EXF_SET_FLD:   myIter, count0, count1:         8      1      2
(PID.TID 0000.0001) EXF_SET_FLD:   first, changed, fac:   F   F    0.48907103825136611
(PID.TID 0000.0001) EXF_SET_FLD: processing field "precip",  file: prate.labsea1979
(PID.TID 0000.0001) EXF_SET_FLD:   myIter, count0, count1:         8      1      2
(PID.TID 0000.0001) EXF_SET_FLD:   first, changed, fac:   F   F    0.48907103825136611
(PID.TID 0000.0001) EXF_SET_FLD: processing field "swdown",  file: fsh.labsea1979
(PID.TID 0000.0001) EXF_SET_FLD:   myIter, count0, count1:         8      1      2
(PID.TID 0000.0001) EXF_SET_FLD:   first, changed, fac:   F   F    0.48907103825136611
(PID.TID 0000.0001) EXF_SET_FLD: processing field "lwdown",  file: flo.labsea1979
(PID.TID 0000.0001) EXF_SET_FLD:   myIter, count0, count1:         8      1      2
(PID.TID 0000.0001) EXF_SET_FLD:   first, changed, fac:   F   F    0.48907103825136611
DEBUG_STATS_RL: Uice pre  iter (SEAICE_LSR  1)  min= -1.95687208100078E-02
DEBUG_STATS_RL: Uice pre  iter (SEAICE_LSR  1)  max=  2.56695252608155E-01
DEBUG_STATS_RL: Uice pre  iter (SEAICE_LSR  1) mean=  6.10102626009216E-02
DEBUG_STATS_RL: Uice pre  iter (SEAICE_LSR  1) S.D.=  7.26515133442376E-02
DEBUG_STATS_RL: Vice pre  iter (SEAICE_LSR  1)  min= -1.74351841638708E-01
DEBUG_STATS_RL: Vice pre  iter (SEAICE_LSR  1)  max=  6.17815719868625E-02
DEBUG_STATS_RL: Vice pre  iter (SEAICE_LSR  1) mean= -5.34332922102911E-02
DEBUG_STATS_RL: Vice pre  iter (SEAICE_LSR  1) S.D.=  5.91879685809897E-02
DEBUG_STATS_RL: Uice pre  iter (SEAICE_LSR  2)  min= -2.10631196463109E-02
DEBUG_STATS_RL: Uice pre  iter (SEAICE_LSR  2)  max=  2.47741110498680E-01
DEBUG_STATS_RL: Uice pre  iter (SEAICE_LSR  2) mean=  5.58563099526310E-02
DEBUG_STATS_RL: Uice pre  iter (SEAICE_LSR  2) S.D.=  6.83562873806260E-02
DEBUG_STATS_RL: Vice pre  iter (SEAICE_LSR  2)  min= -1.71270231908226E-01
DEBUG_STATS_RL: Vice pre  iter (SEAICE_LSR  2)  max=  5.00408736690834E-02
DEBUG_STATS_RL: Vice pre  iter (SEAICE_LSR  2) mean= -5.35471708937614E-02
DEBUG_STATS_RL: Vice pre  iter (SEAICE_LSR  2) S.D.=  5.75117440523993E-02
DEBUG_STATS_RL:                EtaN (DYNAMICS)  min= -1.16069768363193E-01
DEBUG_STATS_RL:                EtaN (DYNAMICS)  max=  3.26639972250713E-01
DEBUG_STATS_RL:                EtaN (DYNAMICS) mean= -4.23481440026215E-03
DEBUG_STATS_RL:                EtaN (DYNAMICS) S.D.=  6.63305979494448E-02
DEBUG_STATS_RL:                Uvel (DYNAMICS)  min= -4.34802359612065E-02
DEBUG_STATS_RL:                Uvel (DYNAMICS)  max=  9.99752242998818E-02
DEBUG_STATS_RL:                Uvel (DYNAMICS) mean=  3.48264152590141E-03
DEBUG_STATS_RL:                Uvel (DYNAMICS) S.D.=  1.35343125506011E-02
DEBUG_STATS_RL:                Vvel (DYNAMICS)  min= -1.33439207289232E-01
DEBUG_STATS_RL:                Vvel (DYNAMICS)  max=  5.60260700766956E-02
DEBUG_STATS_RL:                Vvel (DYNAMICS) mean= -4.02696574872079E-03
DEBUG_STATS_RL:                Vvel (DYNAMICS) S.D.=  1.80273334212582E-02
DEBUG_STATS_RL:                Wvel (DYNAMICS)  min= -2.73348162229361E-04
DEBUG_STATS_RL:                Wvel (DYNAMICS)  max=  3.13596923283673E-04
DEBUG_STATS_RL:                Wvel (DYNAMICS) mean=  4.73709411324699E-08
DEBUG_STATS_RL:                Wvel (DYNAMICS) S.D.=  2.82661454219200E-05
DEBUG_STATS_RL:               Theta (DYNAMICS)  min= -1.95943609422386E+00
DEBUG_STATS_RL:               Theta (DYNAMICS)  max=  1.32225113409296E+01
DEBUG_STATS_RL:               Theta (DYNAMICS) mean=  2.41480286619417E+00
DEBUG_STATS_RL:               Theta (DYNAMICS) S.D.=  2.57398860030337E+00
DEBUG_STATS_RL:                Salt (DYNAMICS)  min=  2.76387468555707E+01
DEBUG_STATS_RL:                Salt (DYNAMICS)  max=  3.54510358217953E+01
DEBUG_STATS_RL:                Salt (DYNAMICS) mean=  3.39367601804954E+01
DEBUG_STATS_RL:                Salt (DYNAMICS) S.D.=  1.15334890349576E+00
DEBUG_STATS_RL:                  Gu (DYNAMICS)  min= -5.98368153010008E-02
DEBUG_STATS_RL:                  Gu (DYNAMICS)  max=  9.68873121299266E-02
DEBUG_STATS_RL:                  Gu (DYNAMICS) mean=  1.30194972948513E-03
DEBUG_STATS_RL:                  Gu (DYNAMICS) S.D.=  1.61566615235077E-02
DEBUG_STATS_RL:                  Gv (DYNAMICS)  min= -1.36271217267996E-01
DEBUG_STATS_RL:                  Gv (DYNAMICS)  max=  3.83573237348857E-02
DEBUG_STATS_RL:                  Gv (DYNAMICS) mean= -7.71950831957342E-03
DEBUG_STATS_RL:                  Gv (DYNAMICS) S.D.=  1.77533563667863E-02
DEBUG_STATS_RL:               GuNm1 (DYNAMICS)  min= -3.40955168137046E-07
DEBUG_STATS_RL:               GuNm1 (DYNAMICS)  max=  1.82641400821295E-07
DEBUG_STATS_RL:               GuNm1 (DYNAMICS) mean= -2.79196714442280E-09
DEBUG_STATS_RL:               GuNm1 (DYNAMICS) S.D.=  4.07453533304381E-08
DEBUG_STATS_RL:               GvNm1 (DYNAMICS)  min= -2.14559263714295E-07
DEBUG_STATS_RL:               GvNm1 (DYNAMICS)  max=  1.94148824775103E-07
DEBUG_STATS_RL:               GvNm1 (DYNAMICS) mean= -4.04169206802071E-10
DEBUG_STATS_RL:               GvNm1 (DYNAMICS) S.D.=  4.19222729578664E-08
DEBUG_STATS_RL:               GtNm1 (DYNAMICS)  min=  0.00000000000000E+00
DEBUG_STATS_RL:               GtNm1 (DYNAMICS)  max=  0.00000000000000E+00
DEBUG_STATS_RL:               GtNm1 (DYNAMICS) mean=  0.00000000000000E+00
DEBUG_STATS_RL:               GtNm1 (DYNAMICS) S.D.=  0.00000000000000E+00
DEBUG_STATS_RL:               GsNm1 (DYNAMICS)  min=  0.00000000000000E+00
DEBUG_STATS_RL:               GsNm1 (DYNAMICS)  max=  0.00000000000000E+00
DEBUG_STATS_RL:               GsNm1 (DYNAMICS) mean=  0.00000000000000E+00
DEBUG_STATS_RL:               GsNm1 (DYNAMICS) S.D.=  0.00000000000000E+00
DEBUG_STATS_RL:    cg2d_b (SOLVE_FOR_PRESSURE)  min= -7.29975929937829E+03
DEBUG_STATS_RL:    cg2d_b (SOLVE_FOR_PRESSURE)  max=  2.19478299507018E+03
DEBUG_STATS_RL:    cg2d_b (SOLVE_FOR_PRESSURE) mean= -3.56597714320136E-13
DEBUG_STATS_RL:    cg2d_b (SOLVE_FOR_PRESSURE) S.D.=  8.94146290228171E+02
 cg2d: Sum(rhs),rhsMax =  -8.55565618351761E-15  1.17489186776830E+00
DEBUG_STATS_RL:    cg2d_x (SOLVE_FOR_PRESSURE)  min= -1.08771127617248E+00
DEBUG_STATS_RL:    cg2d_x (SOLVE_FOR_PRESSURE)  max=  3.12128519797503E+00
DEBUG_STATS_RL:    cg2d_x (SOLVE_FOR_PRESSURE) mean= -4.19588396852533E-02
DEBUG_STATS_RL:    cg2d_x (SOLVE_FOR_PRESSURE) S.D.=  6.20262122263166E-01
DEBUG_STATS_RL:          Uvel (THERMODYNAMICS)  min= -5.12375198217516E-02
DEBUG_STATS_RL:          Uvel (THERMODYNAMICS)  max=  8.84896388076353E-02
DEBUG_STATS_RL:          Uvel (THERMODYNAMICS) mean=  2.55769138538497E-03
DEBUG_STATS_RL:          Uvel (THERMODYNAMICS) S.D.=  1.29064693910296E-02
DEBUG_STATS_RL:          Vvel (THERMODYNAMICS)  min= -1.29344604199478E-01
DEBUG_STATS_RL:          Vvel (THERMODYNAMICS)  max=  4.58633296186257E-02
DEBUG_STATS_RL:          Vvel (THERMODYNAMICS) mean= -4.14107843005604E-03
DEBUG_STATS_RL:          Vvel (THERMODYNAMICS) S.D.=  1.66082836245673E-02
DEBUG_STATS_RL:          Wvel (THERMODYNAMICS)  min= -2.60848991809595E-04
DEBUG_STATS_RL:          Wvel (THERMODYNAMICS)  max=  2.85731299794367E-04
DEBUG_STATS_RL:          Wvel (THERMODYNAMICS) mean=  1.36793666179564E-07
DEBUG_STATS_RL:          Wvel (THERMODYNAMICS) S.D.=  2.70580054557610E-05
DEBUG_STATS_RL:         Theta (THERMODYNAMICS)  min= -1.95932886747259E+00
DEBUG_STATS_RL:         Theta (THERMODYNAMICS)  max=  1.32010303660582E+01
DEBUG_STATS_RL:         Theta (THERMODYNAMICS) mean=  2.41452315045422E+00
DEBUG_STATS_RL:         Theta (THERMODYNAMICS) S.D.=  2.57350774067654E+00
DEBUG_STATS_RL:          Salt (THERMODYNAMICS)  min=  2.76435505129419E+01
DEBUG_STATS_RL:          Salt (THERMODYNAMICS)  max=  3.54508660670958E+01
DEBUG_STATS_RL:          Salt (THERMODYNAMICS) mean=  3.39367749828881E+01
DEBUG_STATS_RL:          Salt (THERMODYNAMICS) S.D.=  1.15309738582084E+00
DEBUG_STATS_RL:         GtNm1 (THERMODYNAMICS)  min=  0.00000000000000E+00
DEBUG_STATS_RL:         GtNm1 (THERMODYNAMICS)  max=  0.00000000000000E+00
DEBUG_STATS_RL:         GtNm1 (THERMODYNAMICS) mean=  0.00000000000000E+00
DEBUG_STATS_RL:         GtNm1 (THERMODYNAMICS) S.D.=  0.00000000000000E+00
DEBUG_STATS_RL:         GsNm1 (THERMODYNAMICS)  min=  0.00000000000000E+00
DEBUG_STATS_RL:         GsNm1 (THERMODYNAMICS)  max=  0.00000000000000E+00
DEBUG_STATS_RL:         GsNm1 (THERMODYNAMICS) mean=  0.00000000000000E+00
DEBUG_STATS_RL:         GsNm1 (THERMODYNAMICS) S.D.=  0.00000000000000E+00
(PID.TID 0000.0001) Did not write pickup because writePickupAtEnd = FALSE
(PID.TID 0000.0001)  MDS_WRITE_FIELD: it,rec,kS,kL,kH=       1    10   1   1   1 file=m_sst_step.0000000001
(PID.TID 0000.0001) gencost # 03
(PID.TID 0000.0001)  MDS_READ_FIELD: opening global file: sigma_sst.bin
(PID.TID 0000.0001)  MDS_READ_FIELD: opening global file: m_sst_step.0000000001.data
(PID.TID 0000.0001)  MDS_READ_FIELD: opening global file: labsea_SST_fields_t10
(PID.TID 0000.0001)  MDS_WRITE_FIELD: it,rec,kS,kL,kH=       1     1   1   1   1 file=misfit_sst
(PID.TID 0000.0001)  MDS_READ_FIELD: opening global file: sigma_sst.bin
(PID.TID 0000.0001)  MDS_READ_FIELD: opening global file: m_sst_step.0000000001.data
(PID.TID 0000.0001)  MDS_READ_FIELD: opening global file: labsea_SST_fields_t10
(PID.TID 0000.0001)  MDS_WRITE_FIELD: it,rec,kS,kL,kH=       1     2   1   1   1 file=misfit_sst
(PID.TID 0000.0001)  MDS_READ_FIELD: opening global file: sigma_sst.bin
(PID.TID 0000.0001)  MDS_READ_FIELD: opening global file: m_sst_step.0000000001.data
(PID.TID 0000.0001)  MDS_READ_FIELD: opening global file: labsea_SST_fields_t10
(PID.TID 0000.0001)  MDS_WRITE_FIELD: it,rec,kS,kL,kH=       1     3   1   1   1 file=misfit_sst
(PID.TID 0000.0001)  MDS_READ_FIELD: opening global file: sigma_sst.bin
(PID.TID 0000.0001)  MDS_READ_FIELD: opening global file: m_sst_step.0000000001.data
(PID.TID 0000.0001)  MDS_READ_FIELD: opening global file: labsea_SST_fields_t10
(PID.TID 0000.0001)  MDS_WRITE_FIELD: it,rec,kS,kL,kH=       1     4   1   1   1 file=misfit_sst
(PID.TID 0000.0001)  MDS_READ_FIELD: opening global file: sigma_sst.bin
(PID.TID 0000.0001)  MDS_READ_FIELD: opening global file: m_sst_step.0000000001.data
(PID.TID 0000.0001)  MDS_READ_FIELD: opening global file: labsea_SST_fields_t10
(PID.TID 0000.0001)  MDS_WRITE_FIELD: it,rec,kS,kL,kH=       1     5   1   1   1 file=misfit_sst
(PID.TID 0000.0001)  MDS_READ_FIELD: opening global file: sigma_sst.bin
(PID.TID 0000.0001)  MDS_READ_FIELD: opening global file: m_sst_step.0000000001.data
(PID.TID 0000.0001)  MDS_READ_FIELD: opening global file: labsea_SST_fields_t10
(PID.TID 0000.0001)  MDS_WRITE_FIELD: it,rec,kS,kL,kH=       1     6   1   1   1 file=misfit_sst
(PID.TID 0000.0001)  MDS_READ_FIELD: opening global file: sigma_sst.bin
(PID.TID 0000.0001)  MDS_READ_FIELD: opening global file: m_sst_step.0000000001.data
(PID.TID 0000.0001)  MDS_READ_FIELD: opening global file: labsea_SST_fields_t10
(PID.TID 0000.0001)  MDS_WRITE_FIELD: it,rec,kS,kL,kH=       1     7   1   1   1 file=misfit_sst
(PID.TID 0000.0001)  MDS_READ_FIELD: opening global file: sigma_sst.bin
(PID.TID 0000.0001)  MDS_READ_FIELD: opening global file: m_sst_step.0000000001.data
(PID.TID 0000.0001)  MDS_READ_FIELD: opening global file: labsea_SST_fields_t10
(PID.TID 0000.0001)  MDS_WRITE_FIELD: it,rec,kS,kL,kH=       1     8   1   1   1 file=misfit_sst
(PID.TID 0000.0001)  MDS_READ_FIELD: opening global file: sigma_sst.bin
(PID.TID 0000.0001)  MDS_READ_FIELD: opening global file: m_sst_step.0000000001.data
(PID.TID 0000.0001)  MDS_READ_FIELD: opening global file: labsea_SST_fields_t10
(PID.TID 0000.0001)  MDS_WRITE_FIELD: it,rec,kS,kL,kH=       1     9   1   1   1 file=misfit_sst
(PID.TID 0000.0001)  MDS_READ_FIELD: opening global file: sigma_sst.bin
(PID.TID 0000.0001)  MDS_READ_FIELD: opening global file: m_sst_step.0000000001.data
(PID.TID 0000.0001)  MDS_READ_FIELD: opening global file: labsea_SST_fields_t10
(PID.TID 0000.0001)  MDS_WRITE_FIELD: it,rec,kS,kL,kH=       1    10   1   1   1 file=misfit_sst
(PID.TID 0000.0001)  MDS_READ_FIELD: opening global file: xx_atemp.0000000001.data
(PID.TID 0000.0001)  MDS_READ_FIELD: opening global file: xx_atemp.0000000001.data
(PID.TID 0000.0001)  MDS_READ_FIELD: opening global file: xx_atemp.0000000001.data
(PID.TID 0000.0001)  MDS_READ_FIELD: opening global file: xx_atemp.0000000001.data
(PID.TID 0000.0001)  MDS_READ_FIELD: opening global file: xx_atemp.0000000001.data
(PID.TID 0000.0001)  MDS_READ_FIELD: opening global file: xx_atemp.0000000001.data
(PID.TID 0000.0001)  MDS_READ_FIELD: opening global file: xx_atemp.0000000001.data
(PID.TID 0000.0001)  MDS_READ_FIELD: opening global file: xx_atemp.0000000001.data
(PID.TID 0000.0001)  MDS_READ_FIELD: opening global file: xx_atemp.0000000001.data
(PID.TID 0000.0001)  MDS_READ_FIELD: opening global file: xx_atemp.0000000001.data
(PID.TID 0000.0001)  MDS_READ_FIELD: opening global file: xx_atemp.0000000001.data
 --> f_ice     = 0.000000000000000D+00
 --> f_smrarea = 0.000000000000000D+00
 --> f_smrarea = 0.000000000000000D+00
 --> f_smrarea = 0.000000000000000D+00
(PID.TID 0000.0001)  --> f_gencost = 0.527453128215443D+04 3
(PID.TID 0000.0001)  --> f_gentim2d = 0.243374980010000D+03 1
(PID.TID 0000.0001)  --> fc               = 0.527453128215443D+04
(PID.TID 0000.0001)  cost_Final: final cost function =  0.527453128215443D+04
(PID.TID 0000.0001) 
(PID.TID 0000.0001)              cost function evaluation finished.
(PID.TID 0000.0001) 
(PID.TID 0000.0001)   early fc =  0.000000000000000D+00
(PID.TID 0000.0001)   local fc =  0.527453128215443D+04
(PID.TID 0000.0001)  global fc =  0.527453128215443D+04
(PID.TID 0000.0001) grdchk perturb(-)fc: fcpertminus =  5.27453128215443E+03
(PID.TID 0000.0001)  MDS_READ_FIELD: opening global file: xx_atemp.0000000001.data
(PID.TID 0000.0001)  MDS_WRITE_FIELD: it,rec,kS,kL,kH=       1     1   1   1   1 file=xx_atemp.0000000001
grad-res -------------------------------
 grad-res     0    5   10    8    1    1    1    1   5.27453128215E+03  5.27453128215E+03  5.27453128215E+03
 grad-res     0    5    5   79    0    1    1    1  -2.37126491426E+05  2.36468622461E-07  1.00000000000E+00
(PID.TID 0000.0001)  ADM  ref_cost_function      =  5.27453128215446E+03
(PID.TID 0000.0001)  ADM  adjoint_gradient       = -2.37126491426012E+05
(PID.TID 0000.0001)  ADM  finite-diff_grad       =  2.36468622460961E-07
(PID.TID 0000.0001) ====== End of gradient-check number   5 (ierr=  0) =======
(PID.TID 0000.0001) 
(PID.TID 0000.0001) // =======================================================
(PID.TID 0000.0001) // Gradient check results  >>> START <<<
(PID.TID 0000.0001) // =======================================================
(PID.TID 0000.0001) 
(PID.TID 0000.0001)  EPS =   1.000000E-04
(PID.TID 0000.0001) 
(PID.TID 0000.0001) grdchk output h.p:  Id Itile Jtile LAYER   bi   bj   X(Id)           X(Id)+/-EPS
(PID.TID 0000.0001) grdchk output h.c:  Id  FC                   FC1                  FC2
(PID.TID 0000.0001) grdchk output h.g:  Id     FC1-FC2/(2*EPS)      ADJ GRAD(FC)         1-FDGRD/ADGRD
(PID.TID 0000.0001) 
(PID.TID 0000.0001) grdchk output (p):   1     6     8     1    1    1   1.000000000E-01  9.990000000E-02
(PID.TID 0000.0001) grdchk output (c):   1  5.2745312821545E+03  5.2745312821545E+03  5.2745312821544E+03
(PID.TID 0000.0001) grdchk output (g):   1     1.1368683772162E-07 -9.8961207443924E+02  1.0000000001149E+00
(PID.TID 0000.0001) 
(PID.TID 0000.0001) grdchk output (p):   2     7     8     1    1    1   1.000000000E-01  9.990000000E-02
(PID.TID 0000.0001) grdchk output (c):   2  5.2745312821545E+03  5.2745312821545E+03  5.2745312821544E+03
(PID.TID 0000.0001) grdchk output (g):   2     1.4097167877480E-07 -1.0257226462816E+03  1.0000000001374E+00
(PID.TID 0000.0001) 
(PID.TID 0000.0001) grdchk output (p):   3     8     8     1    1    1   1.000000000E-01  9.990000000E-02
(PID.TID 0000.0001) grdchk output (c):   3  5.2745312821545E+03  5.2745312821545E+03  5.2745312821544E+03
(PID.TID 0000.0001) grdchk output (g):   3     9.0949470177293E-08 -9.1351488066428E+03  1.0000000000100E+00
(PID.TID 0000.0001) 
(PID.TID 0000.0001) grdchk output (p):   4     9     8     1    1    1   1.000000000E-01  9.990000000E-02
(PID.TID 0000.0001) grdchk output (c):   4  5.2745312821545E+03  5.2745312821545E+03  5.2745312821544E+03
(PID.TID 0000.0001) grdchk output (g):   4     2.1827872842550E-07 -1.3140461136365E+05  1.0000000000017E+00
(PID.TID 0000.0001) 
(PID.TID 0000.0001) grdchk output (p):   5    10     8     1    1    1   1.000000000E-01  9.990000000E-02
(PID.TID 0000.0001) grdchk output (c):   5  5.2745312821545E+03  5.2745312821545E+03  5.2745312821544E+03
(PID.TID 0000.0001) grdchk output (g):   5     2.3646862246096E-07 -2.3712649142601E+05  1.0000000000010E+00
(PID.TID 0000.0001) 
(PID.TID 0000.0001) grdchk  summary  :  RMS of    5 ratios =  1.0000000000530E+00
(PID.TID 0000.0001) 
(PID.TID 0000.0001) // =======================================================
(PID.TID 0000.0001) // Gradient check results  >>> END <<<
(PID.TID 0000.0001) // =======================================================
(PID.TID 0000.0001) 
(PID.TID 0000.0001)   Seconds in section "ALL                    [THE_MODEL_MAIN]":
(PID.TID 0000.0001)           User time:   5.2011599987745285
(PID.TID 0000.0001)         System time:  0.60990302357822657
(PID.TID 0000.0001)     Wall clock time:   18.715484857559204
(PID.TID 0000.0001)          No. starts:           1
(PID.TID 0000.0001)           No. stops:           1
(PID.TID 0000.0001)   Seconds in section "INITIALISE_FIXED       [THE_MODEL_MAIN]":
(PID.TID 0000.0001)           User time:  0.10153799969702959
(PID.TID 0000.0001)         System time:   4.0526999626308680E-002
(PID.TID 0000.0001)     Wall clock time:  0.83673596382141113
(PID.TID 0000.0001)          No. starts:           1
(PID.TID 0000.0001)           No. stops:           1
(PID.TID 0000.0001)   Seconds in section "ADTHE_MAIN_LOOP          [ADJOINT RUN]":
(PID.TID 0000.0001)           User time:   2.1930599361658096
(PID.TID 0000.0001)         System time:  0.31603299081325531
(PID.TID 0000.0001)     Wall clock time:   8.8116269111633301
(PID.TID 0000.0001)          No. starts:           1
(PID.TID 0000.0001)           No. stops:           1
(PID.TID 0000.0001)   Seconds in section "FORWARD_STEP        [MAIN_DO_LOOP]":
(PID.TID 0000.0001)           User time:   3.3449821770191193
(PID.TID 0000.0001)         System time:  0.14541502296924591
(PID.TID 0000.0001)     Wall clock time:   6.4123978614807129
(PID.TID 0000.0001)          No. starts:         108
(PID.TID 0000.0001)           No. stops:         108
(PID.TID 0000.0001)   Seconds in section "DO_STATEVARS_DIAGS  [FORWARD_STEP]":
(PID.TID 0000.0001)           User time:   2.1289288997650146E-003
(PID.TID 0000.0001)         System time:   2.3197382688522339E-004
(PID.TID 0000.0001)     Wall clock time:   2.3717880249023438E-003
(PID.TID 0000.0001)          No. starts:          27
(PID.TID 0000.0001)           No. stops:          27
(PID.TID 0000.0001)   Seconds in section "LOAD_FIELDS_DRIVER  [FORWARD_STEP]":
(PID.TID 0000.0001)           User time:  0.12970069050788879
(PID.TID 0000.0001)         System time:   3.1393975019454956E-002
(PID.TID 0000.0001)     Wall clock time:   1.0886411666870117
(PID.TID 0000.0001)          No. starts:         108
(PID.TID 0000.0001)           No. stops:         108
(PID.TID 0000.0001)   Seconds in section "EXF_GETFORCING     [LOAD_FLDS_DRIVER]":
(PID.TID 0000.0001)           User time:   9.2169240117073059E-002
(PID.TID 0000.0001)         System time:   2.7178011834621429E-002
(PID.TID 0000.0001)     Wall clock time:  0.50250315666198730
(PID.TID 0000.0001)          No. starts:         108
(PID.TID 0000.0001)           No. stops:         108
(PID.TID 0000.0001)   Seconds in section "EXTERNAL_FLDS_LOAD [LOAD_FLDS_DRIVER]":
(PID.TID 0000.0001)           User time:   1.3580173254013062E-003
(PID.TID 0000.0001)         System time:   1.6395747661590576E-004
(PID.TID 0000.0001)     Wall clock time:   1.5153884887695312E-003
(PID.TID 0000.0001)          No. starts:         108
(PID.TID 0000.0001)           No. stops:         108
(PID.TID 0000.0001)   Seconds in section "CTRL_MAP_FORCING  [FORWARD_STEP]":
(PID.TID 0000.0001)           User time:   6.3281059265136719E-003
(PID.TID 0000.0001)         System time:   8.6894631385803223E-004
(PID.TID 0000.0001)     Wall clock time:   7.2095394134521484E-003
(PID.TID 0000.0001)          No. starts:         108
(PID.TID 0000.0001)           No. stops:         108
(PID.TID 0000.0001)   Seconds in section "DO_ATMOSPHERIC_PHYS [FORWARD_STEP]":
(PID.TID 0000.0001)           User time:   3.1106621026992798E-003
(PID.TID 0000.0001)         System time:   4.5474618673324585E-004
(PID.TID 0000.0001)     Wall clock time:   3.5672187805175781E-003
(PID.TID 0000.0001)          No. starts:         108
(PID.TID 0000.0001)           No. stops:         108
(PID.TID 0000.0001)   Seconds in section "DO_OCEANIC_PHYS     [FORWARD_STEP]":
(PID.TID 0000.0001)           User time:   1.4773572832345963
(PID.TID 0000.0001)         System time:   3.6465913057327271E-002
(PID.TID 0000.0001)     Wall clock time:   1.5349802970886230
(PID.TID 0000.0001)          No. starts:         108
(PID.TID 0000.0001)           No. stops:         108
(PID.TID 0000.0001)   Seconds in section "SEAICE_MODEL    [DO_OCEANIC_PHYS]":
(PID.TID 0000.0001)           User time:  0.20153824985027313
(PID.TID 0000.0001)         System time:   1.5369877219200134E-002
(PID.TID 0000.0001)     Wall clock time:  0.22797727584838867
(PID.TID 0000.0001)          No. starts:         108
(PID.TID 0000.0001)           No. stops:         108
(PID.TID 0000.0001)   Seconds in section "SEAICE_DYNSOLVER   [SEAICE_MODEL]":
(PID.TID 0000.0001)           User time:  0.15026012063026428
(PID.TID 0000.0001)         System time:   1.2307047843933105E-002
(PID.TID 0000.0001)     Wall clock time:  0.17203569412231445
(PID.TID 0000.0001)          No. starts:         108
(PID.TID 0000.0001)           No. stops:         108
(PID.TID 0000.0001)   Seconds in section "KPP_CALC [DO_OCEANIC_PHYS]":
(PID.TID 0000.0001)           User time:  0.84170086681842804
(PID.TID 0000.0001)         System time:   9.0840160846710205E-003
(PID.TID 0000.0001)     Wall clock time:  0.85487461090087891
(PID.TID 0000.0001)          No. starts:         108
(PID.TID 0000.0001)           No. stops:         108
(PID.TID 0000.0001)   Seconds in section "DYNAMICS            [FORWARD_STEP]":
(PID.TID 0000.0001)           User time:  0.47429542243480682
(PID.TID 0000.0001)         System time:   6.1769708991050720E-003
(PID.TID 0000.0001)     Wall clock time:  0.50739908218383789
(PID.TID 0000.0001)          No. starts:         108
(PID.TID 0000.0001)           No. stops:         108
(PID.TID 0000.0001)   Seconds in section "SOLVE_FOR_PRESSURE  [FORWARD_STEP]":
(PID.TID 0000.0001)           User time:   5.5773064494132996E-002
(PID.TID 0000.0001)         System time:   9.1200321912765503E-004
(PID.TID 0000.0001)     Wall clock time:   5.9899330139160156E-002
(PID.TID 0000.0001)          No. starts:         108
(PID.TID 0000.0001)           No. stops:         108
(PID.TID 0000.0001)   Seconds in section "MOM_CORRECTION_STEP [FORWARD_STEP]":
(PID.TID 0000.0001)           User time:   1.0757580399513245E-002
(PID.TID 0000.0001)         System time:   1.7903745174407959E-004
(PID.TID 0000.0001)     Wall clock time:   1.0972023010253906E-002
(PID.TID 0000.0001)          No. starts:         108
(PID.TID 0000.0001)           No. stops:         108
(PID.TID 0000.0001)   Seconds in section "INTEGR_CONTINUITY   [FORWARD_STEP]":
(PID.TID 0000.0001)           User time:   7.9212337732315063E-003
(PID.TID 0000.0001)         System time:   1.2400746345520020E-004
(PID.TID 0000.0001)     Wall clock time:   8.0919265747070312E-003
(PID.TID 0000.0001)          No. starts:         108
(PID.TID 0000.0001)           No. stops:         108
(PID.TID 0000.0001)   Seconds in section "BLOCKING_EXCHANGES  [FORWARD_STEP]":
(PID.TID 0000.0001)           User time:   2.5299519300460815E-002
(PID.TID 0000.0001)         System time:   2.8793513774871826E-004
(PID.TID 0000.0001)     Wall clock time:   2.5690317153930664E-002
(PID.TID 0000.0001)          No. starts:         216
(PID.TID 0000.0001)           No. stops:         216
(PID.TID 0000.0001)   Seconds in section "THERMODYNAMICS      [FORWARD_STEP]":
(PID.TID 0000.0001)           User time:  0.51291012763977051
(PID.TID 0000.0001)         System time:   3.7660598754882812E-003
(PID.TID 0000.0001)     Wall clock time:  0.53137969970703125
(PID.TID 0000.0001)          No. starts:         108
(PID.TID 0000.0001)           No. stops:         108
(PID.TID 0000.0001)   Seconds in section "TRC_CORRECTION_STEP [FORWARD_STEP]":
(PID.TID 0000.0001)           User time:   1.5735775232315063E-003
(PID.TID 0000.0001)         System time:   1.4051795005798340E-005
(PID.TID 0000.0001)     Wall clock time:   1.5883445739746094E-003
(PID.TID 0000.0001)          No. starts:         108
(PID.TID 0000.0001)           No. stops:         108
(PID.TID 0000.0001)   Seconds in section "MONITOR             [FORWARD_STEP]":
(PID.TID 0000.0001)           User time:   1.9518166780471802E-002
(PID.TID 0000.0001)         System time:   6.7501515150070190E-004
(PID.TID 0000.0001)     Wall clock time:   2.3128509521484375E-002
(PID.TID 0000.0001)          No. starts:         108
(PID.TID 0000.0001)           No. stops:         108
(PID.TID 0000.0001)   Seconds in section "COST_TILE           [FORWARD_STEP]":
(PID.TID 0000.0001)           User time:   1.5081018209457397E-003
(PID.TID 0000.0001)         System time:   1.0073184967041016E-005
(PID.TID 0000.0001)     Wall clock time:   1.5101432800292969E-003
(PID.TID 0000.0001)          No. starts:         108
(PID.TID 0000.0001)           No. stops:         108
(PID.TID 0000.0001)   Seconds in section "DO_THE_MODEL_IO     [FORWARD_STEP]":
(PID.TID 0000.0001)           User time:   6.8516746163368225E-002
(PID.TID 0000.0001)         System time:   3.2117016613483429E-002
(PID.TID 0000.0001)     Wall clock time:   1.2073934078216553
(PID.TID 0000.0001)          No. starts:         108
(PID.TID 0000.0001)           No. stops:         108
(PID.TID 0000.0001)   Seconds in section "DO_WRITE_PICKUP     [FORWARD_STEP]":
(PID.TID 0000.0001)           User time:   3.2290905714035034E-002
(PID.TID 0000.0001)         System time:   3.0373014509677887E-002
(PID.TID 0000.0001)     Wall clock time:  0.88186526298522949
(PID.TID 0000.0001)          No. starts:         108
(PID.TID 0000.0001)           No. stops:         108
(PID.TID 0000.0001)   Seconds in section "COST_GENCOST_ALL    [ECCO SPIN-DOWN]":
(PID.TID 0000.0001)           User time:   5.0807833671569824E-002
(PID.TID 0000.0001)         System time:   7.4262052774429321E-002
(PID.TID 0000.0001)     Wall clock time:   1.6893336772918701
(PID.TID 0000.0001)          No. starts:          11
(PID.TID 0000.0001)           No. stops:          11
(PID.TID 0000.0001)   Seconds in section "CTRL_COST_DRIVER [ECCO SPIN-DOWN]":
(PID.TID 0000.0001)           User time:   1.9012212753295898E-002
(PID.TID 0000.0001)         System time:   1.2088939547538757E-002
(PID.TID 0000.0001)     Wall clock time:  0.42848205566406250
(PID.TID 0000.0001)          No. starts:          11
(PID.TID 0000.0001)           No. stops:          11
(PID.TID 0000.0001)   Seconds in section "I/O (WRITE)        [ADJOINT LOOP]":
(PID.TID 0000.0001)           User time:   7.6559066772460938E-002
(PID.TID 0000.0001)         System time:   1.9914016127586365E-002
(PID.TID 0000.0001)     Wall clock time:   2.0078897476196289
(PID.TID 0000.0001)          No. starts:          55
(PID.TID 0000.0001)           No. stops:          55
(PID.TID 0000.0001)   Seconds in section "GRDCHK_MAIN         [THE_MODEL_MAIN]":
(PID.TID 0000.0001)           User time:   2.9064459800720215
(PID.TID 0000.0001)         System time:  0.25330102443695068
(PID.TID 0000.0001)     Wall clock time:   9.0652849674224854
(PID.TID 0000.0001)          No. starts:           1
(PID.TID 0000.0001)           No. stops:           1
(PID.TID 0000.0001)   Seconds in section "INITIALISE_VARIA    [THE_MAIN_LOOP]":
(PID.TID 0000.0001)           User time:  0.14461421966552734
(PID.TID 0000.0001)         System time:  0.12498000264167786
(PID.TID 0000.0001)     Wall clock time:   2.8444712162017822
(PID.TID 0000.0001)          No. starts:          10
(PID.TID 0000.0001)           No. stops:          10
(PID.TID 0000.0001)   Seconds in section "MAIN LOOP           [THE_MAIN_LOOP]":
(PID.TID 0000.0001)           User time:   2.7506988048553467
(PID.TID 0000.0001)         System time:  0.12431216239929199
(PID.TID 0000.0001)     Wall clock time:   5.9935629367828369
(PID.TID 0000.0001)          No. starts:          10
(PID.TID 0000.0001)           No. stops:          10
(PID.TID 0000.0001)   Seconds in section "COST_AVERAGESFIELDS [MAIN_DO_LOOP]":
(PID.TID 0000.0001)           User time:   8.5528612136840820E-002
(PID.TID 0000.0001)         System time:   5.6520402431488037E-003
(PID.TID 0000.0001)     Wall clock time:  0.60686373710632324
(PID.TID 0000.0001)          No. starts:          90
(PID.TID 0000.0001)           No. stops:          90
(PID.TID 0000.0001)   Seconds in section "MAIN_DO_LOOP        [THE_MAIN_LOOP]":
(PID.TID 0000.0001)           User time:   2.5786721706390381
(PID.TID 0000.0001)         System time:   4.6912908554077148E-002
(PID.TID 0000.0001)     Wall clock time:   3.3163762092590332
(PID.TID 0000.0001)          No. starts:          90
(PID.TID 0000.0001)           No. stops:          90
(PID.TID 0000.0001)   Seconds in section "COST_AVERAGESFIELDS [THE_MAIN_LOOP]":
(PID.TID 0000.0001)           User time:   8.2664489746093750E-003
(PID.TID 0000.0001)         System time:   8.8500976562500000E-004
(PID.TID 0000.0001)     Wall clock time:   7.3357105255126953E-002
(PID.TID 0000.0001)          No. starts:          10
(PID.TID 0000.0001)           No. stops:          10
(PID.TID 0000.0001)   Seconds in section "ECCO_COST_DRIVER   [THE_MAIN_LOOP]":
(PID.TID 0000.0001)           User time:   6.9219827651977539E-002
(PID.TID 0000.0001)         System time:   6.8913102149963379E-002
(PID.TID 0000.0001)     Wall clock time:   1.9086270332336426
(PID.TID 0000.0001)          No. starts:          10
(PID.TID 0000.0001)           No. stops:          10
(PID.TID 0000.0001)   Seconds in section "COST_FINAL         [ADJOINT SPIN-DOWN]":
(PID.TID 0000.0001)           User time:   4.3828487396240234E-003
(PID.TID 0000.0001)         System time:   1.6929507255554199E-003
(PID.TID 0000.0001)     Wall clock time:   8.3606719970703125E-002
(PID.TID 0000.0001)          No. starts:          10
(PID.TID 0000.0001)           No. stops:          10
(PID.TID 0000.0001) // ======================================================
(PID.TID 0000.0001) // Tile <-> Tile communication statistics
(PID.TID 0000.0001) // ======================================================
(PID.TID 0000.0001) // o Tile number: 000001
(PID.TID 0000.0001) //         No. X exchanges =              0
(PID.TID 0000.0001) //            Max. X spins =              0
(PID.TID 0000.0001) //            Min. X spins =     1000000000
(PID.TID 0000.0001) //          Total. X spins =              0
(PID.TID 0000.0001) //            Avg. X spins =       0.00E+00
(PID.TID 0000.0001) //         No. Y exchanges =              0
(PID.TID 0000.0001) //            Max. Y spins =              0
(PID.TID 0000.0001) //            Min. Y spins =     1000000000
(PID.TID 0000.0001) //          Total. Y spins =              0
(PID.TID 0000.0001) //            Avg. Y spins =       0.00E+00
(PID.TID 0000.0001) // o Thread number: 000001
(PID.TID 0000.0001) //            No. barriers =          94374
(PID.TID 0000.0001) //      Max. barrier spins =              1
(PID.TID 0000.0001) //      Min. barrier spins =              1
(PID.TID 0000.0001) //     Total barrier spins =          94374
(PID.TID 0000.0001) //      Avg. barrier spins =       1.00E+00
PROGRAM MAIN: Execution ended Normally
