(PID.TID 0000.0001) 
(PID.TID 0000.0001) // ======================================================
(PID.TID 0000.0001) //                      MITgcm UV
(PID.TID 0000.0001) //                      =========
(PID.TID 0000.0001) // ======================================================
(PID.TID 0000.0001) // execution environment starting up...
(PID.TID 0000.0001) 
(PID.TID 0000.0001) // MITgcmUV version:  checkpoint68k
(PID.TID 0000.0001) // Build user:        atnguyen
(PID.TID 0000.0001) // Build host:        sverdrup.ices.utexas.edu
(PID.TID 0000.0001) // Build date:        Tue Sep 27 12:51:19 CDT 2022
(PID.TID 0000.0001) 
(PID.TID 0000.0001) // =======================================================
(PID.TID 0000.0001) // Execution Environment parameter file "eedata"
(PID.TID 0000.0001) // =======================================================
(PID.TID 0000.0001) ># Example "eedata" file
(PID.TID 0000.0001) ># Lines beginning "#" are comments
(PID.TID 0000.0001) ># nTx - No. threads per process in X
(PID.TID 0000.0001) ># nTy - No. threads per process in Y
(PID.TID 0000.0001) > &EEPARMS
(PID.TID 0000.0001) > nTx=1,
(PID.TID 0000.0001) > nTy=1,
(PID.TID 0000.0001) > printMapIncludesZeros = .TRUE.
(PID.TID 0000.0001) > debugMode=.FALSE.,
(PID.TID 0000.0001) > &
(PID.TID 0000.0001) ># Note: Some systems use & as the
(PID.TID 0000.0001) ># namelist terminator. Other systems
(PID.TID 0000.0001) ># use a / character (as shown here).
(PID.TID 0000.0001) 
(PID.TID 0000.0001) // =======================================================
(PID.TID 0000.0001) // Computational Grid Specification ( see files "SIZE.h" )
(PID.TID 0000.0001) //                                  ( and "eedata"       )
(PID.TID 0000.0001) // =======================================================
(PID.TID 0000.0001)      nPx =    1 ; /* No. processes in X */
(PID.TID 0000.0001)      nPy =    1 ; /* No. processes in Y */
(PID.TID 0000.0001)      nSx =    1 ; /* No. tiles in X per process */
(PID.TID 0000.0001)      nSy =    1 ; /* No. tiles in Y per process */
(PID.TID 0000.0001)      sNx =   20 ; /* Tile size in X */
(PID.TID 0000.0001)      sNy =   11 ; /* Tile size in Y */
(PID.TID 0000.0001)      OLx =    3 ; /* Tile overlap distance in X */
(PID.TID 0000.0001)      OLy =    3 ; /* Tile overlap distance in Y */
(PID.TID 0000.0001)      nTx =    1 ; /* No. threads in X per process */
(PID.TID 0000.0001)      nTy =    1 ; /* No. threads in Y per process */
(PID.TID 0000.0001)       Nr =   15 ; /* No. levels in the vertical   */
(PID.TID 0000.0001)       Nx =   20 ; /* Total domain size in X ( = nPx*nSx*sNx ) */
(PID.TID 0000.0001)       Ny =   11 ; /* Total domain size in Y ( = nPy*nSy*sNy ) */
(PID.TID 0000.0001)   nTiles =    1 ; /* Total no. tiles per process ( = nSx*nSy ) */
(PID.TID 0000.0001)   nProcs =    1 ; /* Total no. processes ( = nPx*nPy ) */
(PID.TID 0000.0001) nThreads =    1 ; /* Total no. threads per process ( = nTx*nTy ) */
(PID.TID 0000.0001) usingMPI =    T ; /* Flag used to control whether MPI is in use */
(PID.TID 0000.0001)                   /*  note: To execute a program with MPI calls */
(PID.TID 0000.0001)                   /*  it must be launched appropriately e.g     */
(PID.TID 0000.0001)                   /*  "mpirun -np 64 ......"                    */
(PID.TID 0000.0001) useCoupler=   F ; /* Flag used to control communications with   */
(PID.TID 0000.0001)                   /*  other model components, through a coupler */
(PID.TID 0000.0001) useNest2W_parent =    F ;/* Control 2-W Nesting comm */
(PID.TID 0000.0001) useNest2W_child  =    F ;/* Control 2-W Nesting comm */
(PID.TID 0000.0001) debugMode =    F ; /* print debug msg. (sequence of S/R calls)  */
(PID.TID 0000.0001) printMapIncludesZeros=    T ; /* print zeros in Std.Output maps */
(PID.TID 0000.0001) maxLengthPrt1D=   65 /* maxLength of 1D array printed to StdOut */
(PID.TID 0000.0001) 
(PID.TID 0000.0001) ======= Starting MPI parallel Run =========
(PID.TID 0000.0001)  My Processor Name (len: 24 ) = sverdrup.ices.utexas.edu
(PID.TID 0000.0001)  Located at (  0,  0) on processor grid (0:  0,0:  0)
(PID.TID 0000.0001)  Origin at  (     1,     1) on global grid (1:    20,1:    11)
(PID.TID 0000.0001)  North neighbor = processor 0000
(PID.TID 0000.0001)  South neighbor = processor 0000
(PID.TID 0000.0001)   East neighbor = processor 0000
(PID.TID 0000.0001)   West neighbor = processor 0000
(PID.TID 0000.0001) // ======================================================
(PID.TID 0000.0001) // Mapping of tiles to threads
(PID.TID 0000.0001) // ======================================================
(PID.TID 0000.0001) // -o- Thread   1, tiles (   1:   1,   1:   1)
(PID.TID 0000.0001) 
(PID.TID 0000.0001) // ======================================================
(PID.TID 0000.0001) // Tile <-> Tile connectvity table
(PID.TID 0000.0001) // ======================================================
(PID.TID 0000.0001) // Tile number: 000001 (process no. = 000000)
(PID.TID 0000.0001) //        WEST: Tile = 000001, Process = 000000, Comm = put
(PID.TID 0000.0001) //                bi = 000001, bj = 000001
(PID.TID 0000.0001) //        EAST: Tile = 000001, Process = 000000, Comm = put
(PID.TID 0000.0001) //                bi = 000001, bj = 000001
(PID.TID 0000.0001) //       SOUTH: Tile = 000001, Process = 000000, Comm = put
(PID.TID 0000.0001) //                bi = 000001, bj = 000001
(PID.TID 0000.0001) //       NORTH: Tile = 000001, Process = 000000, Comm = put
(PID.TID 0000.0001) //                bi = 000001, bj = 000001
(PID.TID 0000.0001) 
(PID.TID 0000.0001)  INI_PARMS: opening model parameter file "data"
(PID.TID 0000.0001)  OPEN_COPY_DATA_FILE: opening file data
(PID.TID 0000.0001) // =======================================================
(PID.TID 0000.0001) // Parameter file "data"
(PID.TID 0000.0001) // =======================================================
(PID.TID 0000.0001) ># ====================
(PID.TID 0000.0001) ># | Model parameters |
(PID.TID 0000.0001) ># ====================
(PID.TID 0000.0001) >#
(PID.TID 0000.0001) >#
(PID.TID 0000.0001) ># Continuous equation parameters
(PID.TID 0000.0001) > &PARM01
(PID.TID 0000.0001) > tRef=15*0.,
(PID.TID 0000.0001) > sRef=15*34.,
(PID.TID 0000.0001) > viscAz=0.00001,
(PID.TID 0000.0001) > viscC2smag=2.2,
(PID.TID 0000.0001) > diffKzT=0.00001,
(PID.TID 0000.0001) > diffKzS=0.00001,
(PID.TID 0000.0001) > diffKhT=20.,
(PID.TID 0000.0001) > diffKhS=20.,
(PID.TID 0000.0001) ># diffKhT=0.
(PID.TID 0000.0001) ># diffKhS=0.
(PID.TID 0000.0001) > no_slip_sides=.FALSE.,
(PID.TID 0000.0001) > no_slip_bottom=.TRUE.,
(PID.TID 0000.0001) > rigidLid=.FALSE.,
(PID.TID 0000.0001) > implicitFreeSurface=.TRUE.,
(PID.TID 0000.0001) > staggerTimeStep=.TRUE.,
(PID.TID 0000.0001) > tempAdvScheme=33,
(PID.TID 0000.0001) > saltAdvScheme=33,
(PID.TID 0000.0001) > eosType='JMD95Z',
(PID.TID 0000.0001) > f0=0.e-4,
(PID.TID 0000.0001) > beta=0.E-11,
(PID.TID 0000.0001) > selectAddFluid=1.,
(PID.TID 0000.0001) > useSingleCpuIO=.TRUE.,
(PID.TID 0000.0001) > gravity=9.81,
(PID.TID 0000.0001) > rhonil=1029.,
(PID.TID 0000.0001) > rhoConst=1029.,
(PID.TID 0000.0001) > rhoConstFresh=1000.,
(PID.TID 0000.0001) > exactConserv=.TRUE.,
(PID.TID 0000.0001) >#
(PID.TID 0000.0001) >#set nlfs rfwf:
(PID.TID 0000.0001) > select_rStar=2,
(PID.TID 0000.0001) > nonlinFreeSurf=4,
(PID.TID 0000.0001) > useRealFreshWaterFlux=.TRUE.,
(PID.TID 0000.0001) >#set lfs virtual salt:
(PID.TID 0000.0001) ># nonlinFreeSurf=0,
(PID.TID 0000.0001) ># useRealFreshWaterFlux=.FALSE.,
(PID.TID 0000.0001) ># linFSconserveTr=.FALSE.,
(PID.TID 0000.0001) >#
(PID.TID 0000.0001) > debugLevel=1,
(PID.TID 0000.0001) > readBinaryPrec=64,
(PID.TID 0000.0001) > writeBinaryPrec=64,
(PID.TID 0000.0001) > &
(PID.TID 0000.0001) >
(PID.TID 0000.0001) ># Elliptic solver parameters
(PID.TID 0000.0001) > &PARM02
(PID.TID 0000.0001) ># cg2dMaxIters=300,
(PID.TID 0000.0001) ># cg2dTargetResidual=1.E-13,
(PID.TID 0000.0001) > cg3dMaxIters=20,
(PID.TID 0000.0001) > cg3dTargetResidual=1.E-8,
(PID.TID 0000.0001) > &
(PID.TID 0000.0001) >
(PID.TID 0000.0001) ># Time stepping parameters
(PID.TID 0000.0001) > &PARM03
(PID.TID 0000.0001) > nIter0=0,
(PID.TID 0000.0001) ># endTime=200.,
(PID.TID 0000.0001) ># endTime=10000.,
(PID.TID 0000.0001) > nTimeSteps=8,
(PID.TID 0000.0001) >#3 hrs
(PID.TID 0000.0001) ># nTimeSteps=432,
(PID.TID 0000.0001) >#14hrs
(PID.TID 0000.0001) ># nTimeSteps=2016,
(PID.TID 0000.0001) >#2 days
(PID.TID 0000.0001) ># endTime=172800.,
(PID.TID 0000.0001) ># nTimeSteps=6912.,
(PID.TID 0000.0001) >#3 days
(PID.TID 0000.0001) ># nTimeSteps=10368.,
(PID.TID 0000.0001) >#(31+30+31)*24*3600/25
(PID.TID 0000.0001) ># nTimeSteps=317952.,
(PID.TID 0000.0001) > deltaT=25.,
(PID.TID 0000.0001) > abEps=0.01,
(PID.TID 0000.0001) > pChkptFreq=0.,
(PID.TID 0000.0001) > chkptFreq=0.,
(PID.TID 0000.0001) ># dumpFreq=1000,
(PID.TID 0000.0001) > monitorSelect=1,
(PID.TID 0000.0001) ># monitorFreq=1000.,
(PID.TID 0000.0001) > monitorFreq=1.,
(PID.TID 0000.0001) >#when periodicExternalForcing is F, we read only 1 record in from
(PID.TID 0000.0001) >#iceplume_init_fixed and treat the input as constant forcing in time
(PID.TID 0000.0001) > periodicExternalForcing=.FALSE.,
(PID.TID 0000.0001) >#when periodicExternalForcing is T, we read in from external_fields_load
(PID.TID 0000.0001) >#and need accompanied variables to tell period and cycle.
(PID.TID 0000.0001) >#Potentially, we prefer iceplume to have its own period/cycle/flags so
(PID.TID 0000.0001) >#that we dont have conflict of these flags on at the same time of pkg/exf
(PID.TID 0000.0001) ># periodicExternalForcing=.TRUE.,
(PID.TID 0000.0001) ># externForcingPeriod=25.,
(PID.TID 0000.0001) ># externForcingCycle=225.,
(PID.TID 0000.0001) >#cycle: how many records before we loop back to beginning,
(PID.TID 0000.0001) >#e.g. 1 yr at monthly then at rec 13 we loop to beginning
(PID.TID 0000.0001) >#see get_periodic_rec in matlab folder for duplicates.
(PID.TID 0000.0001) > &
(PID.TID 0000.0001) >
(PID.TID 0000.0001) ># Gridding parameters
(PID.TID 0000.0001) > &PARM04
(PID.TID 0000.0001) > usingCartesianGrid=.TRUE.,
(PID.TID 0000.0001) > delXfile='delx_tiny.bin',
(PID.TID 0000.0001) > delYfile='dely_tiny.bin',
(PID.TID 0000.0001) > delZ= 15*10.,
(PID.TID 0000.0001) > &
(PID.TID 0000.0001) >
(PID.TID 0000.0001) ># Input datasets
(PID.TID 0000.0001) > &PARM05
(PID.TID 0000.0001) > bathyFile='bathymetry_tiny_closed.bin',
(PID.TID 0000.0001) > hydrogThetaFile='tempini_tiny.bin',
(PID.TID 0000.0001) > hydrogSaltFile ='saltini_tiny.bin',
(PID.TID 0000.0001) ># uVelInitFile = 'zeros_3d_real8.bin',
(PID.TID 0000.0001) ># vVelInitFile = 'vvel_init_1mps_ix19_iy6.bin',
(PID.TID 0000.0001) > &
(PID.TID 0000.0001) 
(PID.TID 0000.0001)  INI_PARMS ; starts to read PARM01
(PID.TID 0000.0001)  INI_PARMS ; read PARM01 : OK
(PID.TID 0000.0001)  INI_PARMS ; starts to read PARM02
(PID.TID 0000.0001)  INI_PARMS ; read PARM02 : OK
(PID.TID 0000.0001)  INI_PARMS ; starts to read PARM03
(PID.TID 0000.0001)  INI_PARMS ; read PARM03 : OK
(PID.TID 0000.0001)  INI_PARMS ; starts to read PARM04
(PID.TID 0000.0001)  INI_PARMS ; read PARM04 : OK
(PID.TID 0000.0001)  INI_PARMS ; starts to read PARM05
(PID.TID 0000.0001)  INI_PARMS ; read PARM05 : OK
(PID.TID 0000.0001)  INI_PARMS: finished reading file "data"
(PID.TID 0000.0001)  PACKAGES_BOOT: opening data.pkg
(PID.TID 0000.0001)  OPEN_COPY_DATA_FILE: opening file data.pkg
(PID.TID 0000.0001) // =======================================================
(PID.TID 0000.0001) // Parameter file "data.pkg"
(PID.TID 0000.0001) // =======================================================
(PID.TID 0000.0001) ># Packages
(PID.TID 0000.0001) > &PACKAGES
(PID.TID 0000.0001) > useOBCS=.FALSE.,
(PID.TID 0000.0001) > useDiagnostics=.TRUE.,
(PID.TID 0000.0001) > useICEPLUME=.TRUE.,
(PID.TID 0000.0001) ># useEXF=.TRUE.,
(PID.TID 0000.0001) ># useCAL=.TRUE.,
(PID.TID 0000.0001) > &
(PID.TID 0000.0001) 
(PID.TID 0000.0001)  PACKAGES_BOOT: finished reading data.pkg
(PID.TID 0000.0001)  PACKAGES_BOOT: On/Off package Summary
 --------  pkgs with a standard "usePKG" On/Off switch in "data.pkg":  --------
 pkg/obcs                 compiled but not used ( useOBCS                  = F )
 pkg/cal                  compiled but not used ( useCAL                   = F )
 pkg/exf                  compiled but not used ( useEXF                   = F )
 pkg/iceplume             compiled   and   used ( useICEPLUME              = T )
 pkg/diagnostics          compiled   and   used ( useDiagnostics           = T )
 -------- pkgs without standard "usePKG" On/Off switch in "data.pkg":  --------
 pkg/generic_advdiff      compiled   and   used ( useGAD                   = T )
 pkg/mom_common           compiled   and   used ( momStepping              = T )
 pkg/mom_vecinv           compiled but not used ( +vectorInvariantMomentum = F )
 pkg/mom_fluxform         compiled   and   used ( & not vectorInvariantMom = T )
 pkg/monitor              compiled   and   used ( monitorFreq > 0.         = T )
 pkg/debug                compiled but not used ( debugMode                = F )
 pkg/rw                   compiled   and   used
 pkg/mdsio                compiled   and   used
(PID.TID 0000.0001)  PACKAGES_BOOT: End of package Summary
(PID.TID 0000.0001) 
(PID.TID 0000.0001)  ICEPLUME_READPARMS: opening data.iceplume
(PID.TID 0000.0001)  OPEN_COPY_DATA_FILE: opening file data.iceplume
(PID.TID 0000.0001) // =======================================================
(PID.TID 0000.0001) // Parameter file "data.iceplume"
(PID.TID 0000.0001) // =======================================================
(PID.TID 0000.0001) ># ***************
(PID.TID 0000.0001) ># ICEPLUME
(PID.TID 0000.0001) ># ***************
(PID.TID 0000.0001) >
(PID.TID 0000.0001) ># For plume:
(PID.TID 0000.0001) > &ICEPLUME_PARM01
(PID.TID 0000.0001) > runoffVelfile = 'runoffVel_tiny_1mps.bin'
(PID.TID 0000.0001) > runoffRadfile = 'runoffRad_tiny_8m3ps.bin'
(PID.TID 0000.0001) ># runoffQsgfile = 'runoffQsg_tiny_8m3ps.bin'
(PID.TID 0000.0001) >##the file below has 8 through all time, for checking with exf
(PID.TID 0000.0001) ># runoffQsgfile = 'runoffQsg_tiny_8m3ps_9rec_constant.bin'
(PID.TID 0000.0001) > plumeMaskFile = 'plumeMask_tiny.bin'
(PID.TID 0000.0001) ># plumeMaskFile = 'zeros_tiny_real8.bin'
(PID.TID 0000.0001) > usePlumeDiagnostics=.TRUE.,
(PID.TID 0000.0001) >####
(PID.TID 0000.0001) >#conserveMass: when .false. we do NOT scaled Qsg+plumemelt, so the entire volume of FW, converted to mass
(PID.TID 0000.0001) >#and added into addMass is the full amount.  This is what we desire actually, especially for the case with
(PID.TID 0000.0001) >#nlfs+rfwf where the ocean dz is allowed to change.  In general this flag convention of true/false is very
(PID.TID 0000.0001) >#deceiving, in that when .true. we actually do NOT conserve mass but rather remove mass artificially.
(PID.TID 0000.0001) >#Should consider reversing the meaning..
(PID.TID 0000.0001) > conserveMass = .FALSE.,
(PID.TID 0000.0001) > T_sg = 0.001,
(PID.TID 0000.0001) > S_sg = 0.001,
(PID.TID 0000.0001) >## w_sg = 1.0,
(PID.TID 0000.0001) > iceTemp=-10.,
(PID.TID 0000.0001) > backgroundVel=0.017,
(PID.TID 0000.0001) ># rhoShelfice = 917.,
(PID.TID 0000.0001) > &
(PID.TID 0000.0001) >
(PID.TID 0000.0001) > &ICEPLUME_PARM02
(PID.TID 0000.0001) > &
(PID.TID 0000.0001) >
(PID.TID 0000.0001) > &ICEPLUME_PARM03
(PID.TID 0000.0001) > &
(PID.TID 0000.0001) 
(PID.TID 0000.0001)  ICEPLUME_READPARMS: finished reading data.iceplume
(PID.TID 0000.0001)  DIAGNOSTICS_READPARMS: opening data.diagnostics
(PID.TID 0000.0001)  OPEN_COPY_DATA_FILE: opening file data.diagnostics
(PID.TID 0000.0001) // =======================================================
(PID.TID 0000.0001) // Parameter file "data.diagnostics"
(PID.TID 0000.0001) // =======================================================
(PID.TID 0000.0001) ># Diagnostic Package Choices
(PID.TID 0000.0001) >#
(PID.TID 0000.0001) ># 2-D fields:
(PID.TID 0000.0001) ># =================
(PID.TID 0000.0001) >#
(PID.TID 0000.0001) ># ETAN     Perturbation of Surface (pressure, height) (Pa,m)
(PID.TID 0000.0001) >#
(PID.TID 0000.0001) ># monthly 3-D fields:
(PID.TID 0000.0001) ># ===================
(PID.TID 0000.0001) >#
(PID.TID 0000.0001) ># SALTanom Salt anomaly (=SALT-35; g/kg)
(PID.TID 0000.0001) ># THETA    Potential Temperature (degC,K)
(PID.TID 0000.0001) ># UVELMASS Zonal Mass-Weighted Comp of Velocity (m/s)
(PID.TID 0000.0001) ># VVELMASS Meridional Mass-Weighted Comp of Velocity (m/s)
(PID.TID 0000.0001) ># WVELMASS Vertical Mass-Weighted Comp of Velocity (m/s)
(PID.TID 0000.0001) >#
(PID.TID 0000.0001) > &diagnostics_list
(PID.TID 0000.0001) >   frequency(8) = 25.,
(PID.TID 0000.0001) >    fields(1:6,8) = 'icefrntW','icefrntT','icefrntS',
(PID.TID 0000.0001) >                    'icefrntR','icefrntM','icefrntA',
(PID.TID 0000.0001) >    filename(8) = 'diags/icefrnt_3d_set1',
(PID.TID 0000.0001) >   fileFlags(8) = 'D       ',
(PID.TID 0000.0001) >#
(PID.TID 0000.0001) >  frequency(1) = 25.0,
(PID.TID 0000.0001) >   fields(1:9,1) = 'ETAN    ','DETADT2 ','PHIBOT  ',
(PID.TID 0000.0001) >                   'MXLDEPTH','oceQnet ','oceFWflx',
(PID.TID 0000.0001) >                   'oceTAUX ','oceTAUY ','ETANSQ  ',
(PID.TID 0000.0001) >   filename(1) = 'diags/state_2d_set1',
(PID.TID 0000.0001) >   fileFlags(1) = 'D       ',
(PID.TID 0000.0001) >###---
(PID.TID 0000.0001) >  frequency(2) = 25.0,
(PID.TID 0000.0001) >   fields(1:2,2) = 'THETA   ','SALT    ',
(PID.TID 0000.0001) >#                   'tAddMass','sAddMass',
(PID.TID 0000.0001) >#                   'DRHODR  ','RHOAnoma',
(PID.TID 0000.0001) >   filename(2) = 'diags/state_3d_set1',
(PID.TID 0000.0001) >   fileFlags(2) = 'D       ',
(PID.TID 0000.0001) >##---
(PID.TID 0000.0001) >  frequency(3) = 25.0,
(PID.TID 0000.0001) >   fields(1:3,3) = 'UVELMASS','VVELMASS','WVELMASS',
(PID.TID 0000.0001) >   filename(3) = 'diags/trsp_3d_set1',
(PID.TID 0000.0001) >   fileFlags(3) = 'D       ',
(PID.TID 0000.0001) >###---
(PID.TID 0000.0001) >##set below only works if we turn on pkg/exf
(PID.TID 0000.0001) >#  frequency(4) = 25.0,
(PID.TID 0000.0001) >#   fields(1:18,4) ='EXFpreci','EXFevap ','EXFroff ','EXFempmr',
(PID.TID 0000.0001) >#                   'EXFswdn ','EXFlwdn ','EXFswnet','EXFlwnet','EXFqnet ',
(PID.TID 0000.0001) >#                   'EXFatemp','EXFaqh  ','EXFtaux ','EXFtauy ',
(PID.TID 0000.0001) >#                   'EXFuwind','EXFvwind','EXFpress','EXFhs   ','EXFhl   ',
(PID.TID 0000.0001) >#   filename(4) = 'diags/exf_zflux_set1',
(PID.TID 0000.0001) >##                 'EXFroft ',
(PID.TID 0000.0001) >###---
(PID.TID 0000.0001) >  frequency(5) = -25.0,
(PID.TID 0000.0001) >   fields(1:2,5) = 'ETAN    ',
(PID.TID 0000.0001) >                   'PHIBOT  ',
(PID.TID 0000.0001) >   filename(5) = 'diags/budg2d_snap_set1',
(PID.TID 0000.0001) >   timePhase(5)= 0.,
(PID.TID 0000.0001) >   fileFlags(5) = 'D       ',
(PID.TID 0000.0001) >#'SIheff  ','SIhsnow ','SIarea  ','sIceLoad',
(PID.TID 0000.0001) >#####---
(PID.TID 0000.0001) >  frequency(9) = -25.0,
(PID.TID 0000.0001) >   fields(1:2,9) = 'THETA   ','SALT    ',
(PID.TID 0000.0001) >#                   'tAddMass','sAddMass',
(PID.TID 0000.0001) >   filename(9) = 'diags/budg3d_snap_set3',
(PID.TID 0000.0001) >   timePhase(9)= 0.,
(PID.TID 0000.0001) >   fileFlags(9) = 'D       ',
(PID.TID 0000.0001) >#####---
(PID.TID 0000.0001) >  frequency(7) = 25.0,
(PID.TID 0000.0001) >   fields(1:4,7) = 'oceFWflx','TFLUX   ',
(PID.TID 0000.0001) >                   'SFLUX   ','oceQsw  ',
(PID.TID 0000.0001) >   filename(7) = 'diags/budg2d_zflux_set1',
(PID.TID 0000.0001) >   fileFlags(7) = 'D       ',
(PID.TID 0000.0001) >#                  'SPforcT1','SPforcS1',
(PID.TID 0000.0001) >#                  'SIatmFW ','SItflux ','oceSPflx',
(PID.TID 0000.0001) >#####---
(PID.TID 0000.0001) >###thse fields have "r" for vert int so just mult with drF
(PID.TID 0000.0001) >  frequency(14) = 25.0,
(PID.TID 0000.0001) >   fields(1:12,14) ='UVELMASS','VVELMASS',
(PID.TID 0000.0001) >                    'ADVx_TH ','ADVy_TH ','DFxE_TH ','DFyE_TH ',
(PID.TID 0000.0001) >                    'ADVx_SLT','ADVy_SLT','DFxE_SLT','DFyE_SLT',
(PID.TID 0000.0001) >                    'AB_gT   ','AB_gS   ',
(PID.TID 0000.0001) >   filename(14) = 'diags/budg3d_hflux_set2',
(PID.TID 0000.0001) >   fileFlags(14) = 'D       ',
(PID.TID 0000.0001) >#the following are not transports but tendencies
(PID.TID 0000.0001) >#                 'oceSPtnd','oceEPtnd',
(PID.TID 0000.0001) >#####---
(PID.TID 0000.0001) >  frequency(17) = 25.0,
(PID.TID 0000.0001) >   fields(1:7,17) ='addMass ','IPmasspl','IPmassbg',
(PID.TID 0000.0001) >                   'IP_gTplm','IP_gTbg ',
(PID.TID 0000.0001) >                   'IP_gSplm','IP_gSbg ',
(PID.TID 0000.0001) >   filename(17) = 'diags/budg3d_hflux_set3',
(PID.TID 0000.0001) >   fileFlags(17) = 'D       ',
(PID.TID 0000.0001) >#####---
(PID.TID 0000.0001) >  frequency(18) = 25.0,
(PID.TID 0000.0001) >   fields(1:2,18) ='gTaddMas','gSaddMas',
(PID.TID 0000.0001) >   filename(18) = 'diags/budg3d_tend',
(PID.TID 0000.0001) >   fileFlags(18) = 'D       ',
(PID.TID 0000.0001) >#####---
(PID.TID 0000.0001) >#  frequency(7) = 25.0,
(PID.TID 0000.0001) >#   fields(1:4,7) ='ADVxHEFF','ADVyHEFF',
(PID.TID 0000.0001) >#                  'ADVxSNOW','ADVySNOW',
(PID.TID 0000.0001) >#   filename(7) = 'diags/budg2d_hflux_set1',
(PID.TID 0000.0001) >#   fileFlags(7) = 'D       ',
(PID.TID 0000.0001) >##                ,'DFxEHEFF','DFyEHEFF'
(PID.TID 0000.0001) >##                ,'DFxESNOW','DFyESNOW'
(PID.TID 0000.0001) >#
(PID.TID 0000.0001) >## this one is important because it activates the vertical advection diags
(PID.TID 0000.0001) >  frequency(15) = 25.0,
(PID.TID 0000.0001) >   fields(1:6,15) ='SRELAX  ','TRELAX  ','WTHMASS ','WSLTMASS',
(PID.TID 0000.0001) >                   'oceSflux','oceQnet ',
(PID.TID 0000.0001) >   filename(15) = 'diags/budg2d_zflux_set2',
(PID.TID 0000.0001) >   fileFlags(15) = 'D       ',
(PID.TID 0000.0001) >#                   'SIatmQnt','SIaaflux','SIsnPrcp','SIacSubl',
(PID.TID 0000.0001) >#'SIempmr ', SIempmr is identical to minus oceFWflx
(PID.TID 0000.0001) >#####---
(PID.TID 0000.0001) >  frequency(16) = 25.0,
(PID.TID 0000.0001) >   fields(1:9,16) ='WVELMASS',
(PID.TID 0000.0001) >                   'ADVr_TH ','DFrE_TH ','DFrI_TH ',
(PID.TID 0000.0001) >                   'ADVr_SLT','DFrE_SLT','DFrI_SLT',
(PID.TID 0000.0001) >                   'WTHMASS ','WSLTMASS',
(PID.TID 0000.0001) >   filename(16) = 'diags/budg3d_zflux_set2',
(PID.TID 0000.0001) >   fileFlags(16) = 'D       ',
(PID.TID 0000.0001) >#WTHMASS,WSLTMASS  only needed for the 1st layer, not 3d
(PID.TID 0000.0001) >#####---
(PID.TID 0000.0001) >#####---
(PID.TID 0000.0001) >#  frequency(21) = 25.0,
(PID.TID 0000.0001) >#   fields(1:2,21) ='KPPg_TH ','KPPg_SLT',
(PID.TID 0000.0001) >##                   'oceSPtnd','oceEPtnd',
(PID.TID 0000.0001) >#   filename(21) = 'diags/budg3d_kpptend_set1',
(PID.TID 0000.0001) >#   fileFlags(21) = 'D       ',
(PID.TID 0000.0001) >#####note: TOT[T,S]TEND are useless unless mult also with hFacC prior to output
(PID.TID 0000.0001) >#####note: for what i run, AB_g[T,S] are all zeros, so saving space and not diag
(PID.TID 0000.0001) >#####                   'TOTTTEND','TOTSTEND','AB_gT   ','AB_gS   ',
(PID.TID 0000.0001) >#####---
(PID.TID 0000.0001) >###some fields not kpp nor tend, but need for integrated:
(PID.TID 0000.0001) >#  frequency(17) = 25.0,
(PID.TID 0000.0001) >#   fields(1:7,17) =
(PID.TID 0000.0001) >#                    'WVELMASS','ADVr_TH ','DFrE_TH ','DFrI_TH ',
(PID.TID 0000.0001) >#                    'ADVr_SLT','DFrE_SLT','DFrI_SLT',
(PID.TID 0000.0001) >##                    'KPPg_TH ','KPPg_SLT','oceSPtnd',
(PID.TID 0000.0001) >##                    'oceEPtnd',
(PID.TID 0000.0001) >#   filename(17) = 'diags/budg2d_kpptend_set1',
(PID.TID 0000.0001) >#   fileFlags(17) = 'DI      ',
(PID.TID 0000.0001) >###---
(PID.TID 0000.0001) > &
(PID.TID 0000.0001) ># Parameter for Diagnostics of per level statistics:
(PID.TID 0000.0001) >#-----------------
(PID.TID 0000.0001) ># for each output-stream:
(PID.TID 0000.0001) >#  stat_fname(n) : prefix of the output file name (only 8.c long) for
(PID.TID 0000.0001) >#outp.stream n
(PID.TID 0000.0001) >#  stat_freq(n):< 0 : write snap-shot output every |stat_freq| seconds
(PID.TID 0000.0001) >#               > 0 : write time-average output every stat_freq seconds
(PID.TID 0000.0001) >#  stat_phase(n)    : write at time = stat_phase + multiple of |stat_freq|
(PID.TID 0000.0001) >#  stat_region(:,n) : list of "regions" (default: 1 region only=global)
(PID.TID 0000.0001) >#  stat_fields(:,n) : list of diagnostics fields (8.c) (see
(PID.TID 0000.0001) >#"available_diagnostics.log"
(PID.TID 0000.0001) >#                 file for the list of all available diag. in this particular
(PID.TID 0000.0001) >#config)
(PID.TID 0000.0001) >#-----------------
(PID.TID 0000.0001) > &DIAG_STATIS_PARMS
(PID.TID 0000.0001) >#- an example just to check the agreement with MONITOR output:
(PID.TID 0000.0001) >#stat_fields(1,1)= 'ETAN    ','UVEL    ','VVEL    ','WVEL    ', 'THETA   ',
(PID.TID 0000.0001) >#   stat_fname(1)= 'dynStDiag',
(PID.TID 0000.0001) >#    stat_freq(1)= -864000.,
(PID.TID 0000.0001) >#   stat_phase(1)= 0.,
(PID.TID 0000.0001) > &
(PID.TID 0000.0001) 
(PID.TID 0000.0001) S/R DIAGNOSTICS_READPARMS, read namelist "diagnostics_list": start
(PID.TID 0000.0001) S/R DIAGNOSTICS_READPARMS, read namelist "diagnostics_list": OK
(PID.TID 0000.0001) S/R DIAGNOSTICS_READPARMS, read namelist "DIAG_STATIS_PARMS": start
(PID.TID 0000.0001) S/R DIAGNOSTICS_READPARMS, read namelist "DIAG_STATIS_PARMS": OK
(PID.TID 0000.0001)  DIAGNOSTICS_READPARMS: global parameter summary:
(PID.TID 0000.0001)  dumpAtLast = /* always write time-ave diags at the end */
(PID.TID 0000.0001)                   F
(PID.TID 0000.0001)     ;
(PID.TID 0000.0001)  diag_mnc =   /* write NetCDF output files */
(PID.TID 0000.0001)                   F
(PID.TID 0000.0001)     ;
(PID.TID 0000.0001)  useMissingValue = /* put MissingValue where mask = 0 */
(PID.TID 0000.0001)                   F
(PID.TID 0000.0001)     ;
(PID.TID 0000.0001)  diagCG_maxIters = /* max number of iters in diag_cg2d */
(PID.TID 0000.0001)                     150
(PID.TID 0000.0001)     ;
(PID.TID 0000.0001)  diagCG_resTarget = /* residual target for diag_cg2d */
(PID.TID 0000.0001)                 1.000000000000000E-07
(PID.TID 0000.0001)     ;
(PID.TID 0000.0001)  diagCG_pcOffDFac = /* preconditioner off-diagonal factor */
(PID.TID 0000.0001)                 9.611687812379854E-01
(PID.TID 0000.0001)     ;
(PID.TID 0000.0001) -----------------------------------------------------
(PID.TID 0000.0001)  DIAGNOSTICS_READPARMS: active diagnostics summary:
(PID.TID 0000.0001) -----------------------------------------------------
(PID.TID 0000.0001) Creating Output Stream: diags/state_2d_set1
(PID.TID 0000.0001) Output Frequency:         25.000000 ; Phase:           0.000000
(PID.TID 0000.0001)  Averaging Freq.:         25.000000 , Phase:           0.000000 , Cycle:   1
(PID.TID 0000.0001)  missing value: -9.990000000000E+02 ; F-Flags="D       "
(PID.TID 0000.0001)  Levels:    will be set later
(PID.TID 0000.0001)  Fields:    ETAN     DETADT2  PHIBOT   MXLDEPTH oceQnet  oceFWflx oceTAUX  oceTAUY  ETANSQ
(PID.TID 0000.0001) Creating Output Stream: diags/state_3d_set1
(PID.TID 0000.0001) Output Frequency:         25.000000 ; Phase:           0.000000
(PID.TID 0000.0001)  Averaging Freq.:         25.000000 , Phase:           0.000000 , Cycle:   1
(PID.TID 0000.0001)  missing value: -9.990000000000E+02 ; F-Flags="D       "
(PID.TID 0000.0001)  Levels:    will be set later
(PID.TID 0000.0001)  Fields:    THETA    SALT
(PID.TID 0000.0001) Creating Output Stream: diags/trsp_3d_set1
(PID.TID 0000.0001) Output Frequency:         25.000000 ; Phase:           0.000000
(PID.TID 0000.0001)  Averaging Freq.:         25.000000 , Phase:           0.000000 , Cycle:   1
(PID.TID 0000.0001)  missing value: -9.990000000000E+02 ; F-Flags="D       "
(PID.TID 0000.0001)  Levels:    will be set later
(PID.TID 0000.0001)  Fields:    UVELMASS VVELMASS WVELMASS
(PID.TID 0000.0001) Creating Output Stream: diags/budg2d_snap_set1
(PID.TID 0000.0001) Output Frequency:        -25.000000 ; Phase:           0.000000
(PID.TID 0000.0001)  Averaging Freq.:          0.000000 , Phase:           0.000000 , Cycle:   1
(PID.TID 0000.0001)  missing value: -9.990000000000E+02 ; F-Flags="D       "
(PID.TID 0000.0001)  Levels:    will be set later
(PID.TID 0000.0001)  Fields:    ETAN     PHIBOT
(PID.TID 0000.0001) Creating Output Stream: diags/budg2d_zflux_set1
(PID.TID 0000.0001) Output Frequency:         25.000000 ; Phase:           0.000000
(PID.TID 0000.0001)  Averaging Freq.:         25.000000 , Phase:           0.000000 , Cycle:   1
(PID.TID 0000.0001)  missing value: -9.990000000000E+02 ; F-Flags="D       "
(PID.TID 0000.0001)  Levels:    will be set later
(PID.TID 0000.0001)  Fields:    oceFWflx TFLUX    SFLUX    oceQsw
(PID.TID 0000.0001) Creating Output Stream: diags/icefrnt_3d_set1
(PID.TID 0000.0001) Output Frequency:         25.000000 ; Phase:           0.000000
(PID.TID 0000.0001)  Averaging Freq.:         25.000000 , Phase:           0.000000 , Cycle:   1
(PID.TID 0000.0001)  missing value: -9.990000000000E+02 ; F-Flags="D       "
(PID.TID 0000.0001)  Levels:    will be set later
(PID.TID 0000.0001)  Fields:    icefrntW icefrntT icefrntS icefrntR icefrntM icefrntA
(PID.TID 0000.0001) Creating Output Stream: diags/budg3d_snap_set3
(PID.TID 0000.0001) Output Frequency:        -25.000000 ; Phase:           0.000000
(PID.TID 0000.0001)  Averaging Freq.:          0.000000 , Phase:           0.000000 , Cycle:   1
(PID.TID 0000.0001)  missing value: -9.990000000000E+02 ; F-Flags="D       "
(PID.TID 0000.0001)  Levels:    will be set later
(PID.TID 0000.0001)  Fields:    THETA    SALT
(PID.TID 0000.0001) Creating Output Stream: diags/budg3d_hflux_set2
(PID.TID 0000.0001) Output Frequency:         25.000000 ; Phase:           0.000000
(PID.TID 0000.0001)  Averaging Freq.:         25.000000 , Phase:           0.000000 , Cycle:   1
(PID.TID 0000.0001)  missing value: -9.990000000000E+02 ; F-Flags="D       "
(PID.TID 0000.0001)  Levels:    will be set later
(PID.TID 0000.0001)  Fields:    UVELMASS VVELMASS ADVx_TH  ADVy_TH  DFxE_TH  DFyE_TH  ADVx_SLT ADVy_SLT DFxE_SLT DFyE_SLT
(PID.TID 0000.0001)  Fields:    AB_gT    AB_gS
(PID.TID 0000.0001) Creating Output Stream: diags/budg2d_zflux_set2
(PID.TID 0000.0001) Output Frequency:         25.000000 ; Phase:           0.000000
(PID.TID 0000.0001)  Averaging Freq.:         25.000000 , Phase:           0.000000 , Cycle:   1
(PID.TID 0000.0001)  missing value: -9.990000000000E+02 ; F-Flags="D       "
(PID.TID 0000.0001)  Levels:    will be set later
(PID.TID 0000.0001)  Fields:    SRELAX   TRELAX   WTHMASS  WSLTMASS oceSflux oceQnet
(PID.TID 0000.0001) Creating Output Stream: diags/budg3d_zflux_set2
(PID.TID 0000.0001) Output Frequency:         25.000000 ; Phase:           0.000000
(PID.TID 0000.0001)  Averaging Freq.:         25.000000 , Phase:           0.000000 , Cycle:   1
(PID.TID 0000.0001)  missing value: -9.990000000000E+02 ; F-Flags="D       "
(PID.TID 0000.0001)  Levels:    will be set later
(PID.TID 0000.0001)  Fields:    WVELMASS ADVr_TH  DFrE_TH  DFrI_TH  ADVr_SLT DFrE_SLT DFrI_SLT WTHMASS  WSLTMASS
(PID.TID 0000.0001) Creating Output Stream: diags/budg3d_hflux_set3
(PID.TID 0000.0001) Output Frequency:         25.000000 ; Phase:           0.000000
(PID.TID 0000.0001)  Averaging Freq.:         25.000000 , Phase:           0.000000 , Cycle:   1
(PID.TID 0000.0001)  missing value: -9.990000000000E+02 ; F-Flags="D       "
(PID.TID 0000.0001)  Levels:    will be set later
(PID.TID 0000.0001)  Fields:    addMass  IPmasspl IPmassbg IP_gTplm IP_gTbg  IP_gSplm IP_gSbg
(PID.TID 0000.0001) Creating Output Stream: diags/budg3d_tend
(PID.TID 0000.0001) Output Frequency:         25.000000 ; Phase:           0.000000
(PID.TID 0000.0001)  Averaging Freq.:         25.000000 , Phase:           0.000000 , Cycle:   1
(PID.TID 0000.0001)  missing value: -9.990000000000E+02 ; F-Flags="D       "
(PID.TID 0000.0001)  Levels:    will be set later
(PID.TID 0000.0001)  Fields:    gTaddMas gSaddMas
(PID.TID 0000.0001) -----------------------------------------------------
(PID.TID 0000.0001)  DIAGNOSTICS_READPARMS: statistics diags. summary:
(PID.TID 0000.0001) -----------------------------------------------------
(PID.TID 0000.0001) 
(PID.TID 0000.0001) SET_PARMS: done
(PID.TID 0000.0001) S/R LOAD_GRID_SPACING: delX loaded from file: delx_tiny.bin
(PID.TID 0000.0001) S/R LOAD_GRID_SPACING: delY loaded from file: dely_tiny.bin
(PID.TID 0000.0001) Enter INI_VERTICAL_GRID: setInterFDr=    T ; setCenterDr=    F
(PID.TID 0000.0001) %MON XC_max                       =   3.9000000000000E+03
(PID.TID 0000.0001) %MON XC_min                       =   1.0000000000000E+02
(PID.TID 0000.0001) %MON XC_mean                      =   2.0000000000000E+03
(PID.TID 0000.0001) %MON XC_sd                        =   1.1532562594671E+03
(PID.TID 0000.0001) %MON XG_max                       =   3.8000000000000E+03
(PID.TID 0000.0001) %MON XG_min                       =   0.0000000000000E+00
(PID.TID 0000.0001) %MON XG_mean                      =   1.9000000000000E+03
(PID.TID 0000.0001) %MON XG_sd                        =   1.1532562594671E+03
(PID.TID 0000.0001) %MON DXC_max                      =   2.0000000000000E+02
(PID.TID 0000.0001) %MON DXC_min                      =   2.0000000000000E+02
(PID.TID 0000.0001) %MON DXC_mean                     =   2.0000000000000E+02
(PID.TID 0000.0001) %MON DXC_sd                       =   0.0000000000000E+00
(PID.TID 0000.0001) %MON DXF_max                      =   2.0000000000000E+02
(PID.TID 0000.0001) %MON DXF_min                      =   2.0000000000000E+02
(PID.TID 0000.0001) %MON DXF_mean                     =   2.0000000000000E+02
(PID.TID 0000.0001) %MON DXF_sd                       =   0.0000000000000E+00
(PID.TID 0000.0001) %MON DXG_max                      =   2.0000000000000E+02
(PID.TID 0000.0001) %MON DXG_min                      =   2.0000000000000E+02
(PID.TID 0000.0001) %MON DXG_mean                     =   2.0000000000000E+02
(PID.TID 0000.0001) %MON DXG_sd                       =   0.0000000000000E+00
(PID.TID 0000.0001) %MON DXV_max                      =   2.0000000000000E+02
(PID.TID 0000.0001) %MON DXV_min                      =   2.0000000000000E+02
(PID.TID 0000.0001) %MON DXV_mean                     =   2.0000000000000E+02
(PID.TID 0000.0001) %MON DXV_sd                       =   0.0000000000000E+00
(PID.TID 0000.0001) %MON YC_max                       =   2.1000000000000E+03
(PID.TID 0000.0001) %MON YC_min                       =   1.0000000000000E+02
(PID.TID 0000.0001) %MON YC_mean                      =   1.1000000000000E+03
(PID.TID 0000.0001) %MON YC_sd                        =   6.3245553203368E+02
(PID.TID 0000.0001) %MON YG_max                       =   2.0000000000000E+03
(PID.TID 0000.0001) %MON YG_min                       =   0.0000000000000E+00
(PID.TID 0000.0001) %MON YG_mean                      =   1.0000000000000E+03
(PID.TID 0000.0001) %MON YG_sd                        =   6.3245553203368E+02
(PID.TID 0000.0001) %MON DYC_max                      =   2.0000000000000E+02
(PID.TID 0000.0001) %MON DYC_min                      =   2.0000000000000E+02
(PID.TID 0000.0001) %MON DYC_mean                     =   2.0000000000000E+02
(PID.TID 0000.0001) %MON DYC_sd                       =   0.0000000000000E+00
(PID.TID 0000.0001) %MON DYF_max                      =   2.0000000000000E+02
(PID.TID 0000.0001) %MON DYF_min                      =   2.0000000000000E+02
(PID.TID 0000.0001) %MON DYF_mean                     =   2.0000000000000E+02
(PID.TID 0000.0001) %MON DYF_sd                       =   0.0000000000000E+00
(PID.TID 0000.0001) %MON DYG_max                      =   2.0000000000000E+02
(PID.TID 0000.0001) %MON DYG_min                      =   2.0000000000000E+02
(PID.TID 0000.0001) %MON DYG_mean                     =   2.0000000000000E+02
(PID.TID 0000.0001) %MON DYG_sd                       =   0.0000000000000E+00
(PID.TID 0000.0001) %MON DYU_max                      =   2.0000000000000E+02
(PID.TID 0000.0001) %MON DYU_min                      =   2.0000000000000E+02
(PID.TID 0000.0001) %MON DYU_mean                     =   2.0000000000000E+02
(PID.TID 0000.0001) %MON DYU_sd                       =   0.0000000000000E+00
(PID.TID 0000.0001) %MON RA_max                       =   4.0000000000000E+04
(PID.TID 0000.0001) %MON RA_min                       =   4.0000000000000E+04
(PID.TID 0000.0001) %MON RA_mean                      =   4.0000000000000E+04
(PID.TID 0000.0001) %MON RA_sd                        =   0.0000000000000E+00
(PID.TID 0000.0001) %MON RAW_max                      =   4.0000000000000E+04
(PID.TID 0000.0001) %MON RAW_min                      =   4.0000000000000E+04
(PID.TID 0000.0001) %MON RAW_mean                     =   4.0000000000000E+04
(PID.TID 0000.0001) %MON RAW_sd                       =   0.0000000000000E+00
(PID.TID 0000.0001) %MON RAS_max                      =   4.0000000000000E+04
(PID.TID 0000.0001) %MON RAS_min                      =   4.0000000000000E+04
(PID.TID 0000.0001) %MON RAS_mean                     =   4.0000000000000E+04
(PID.TID 0000.0001) %MON RAS_sd                       =   0.0000000000000E+00
(PID.TID 0000.0001) %MON RAZ_max                      =   4.0000000000000E+04
(PID.TID 0000.0001) %MON RAZ_min                      =   4.0000000000000E+04
(PID.TID 0000.0001) %MON RAZ_mean                     =   4.0000000000000E+04
(PID.TID 0000.0001) %MON RAZ_sd                       =   0.0000000000000E+00
(PID.TID 0000.0001) %MON AngleCS_max                  =   1.0000000000000E+00
(PID.TID 0000.0001) %MON AngleCS_min                  =   1.0000000000000E+00
(PID.TID 0000.0001) %MON AngleCS_mean                 =   1.0000000000000E+00
(PID.TID 0000.0001) %MON AngleCS_sd                   =   0.0000000000000E+00
(PID.TID 0000.0001) %MON AngleSN_max                  =   0.0000000000000E+00
(PID.TID 0000.0001) %MON AngleSN_min                  =   0.0000000000000E+00
(PID.TID 0000.0001) %MON AngleSN_mean                 =   0.0000000000000E+00
(PID.TID 0000.0001) %MON AngleSN_sd                   =   0.0000000000000E+00
(PID.TID 0000.0001) GAD_INIT_FIXED: GAD_OlMinSize=  2  0  1
(PID.TID 0000.0001) 
(PID.TID 0000.0001) // ===================================
(PID.TID 0000.0001) // GAD parameters :
(PID.TID 0000.0001) // ===================================
(PID.TID 0000.0001) tempAdvScheme =   /* Temp. Horiz.Advection scheme selector */
(PID.TID 0000.0001)                      33
(PID.TID 0000.0001)     ;
(PID.TID 0000.0001) tempVertAdvScheme =   /* Temp. Vert. Advection scheme selector */
(PID.TID 0000.0001)                      33
(PID.TID 0000.0001)     ;
(PID.TID 0000.0001) tempMultiDimAdvec =   /* use Muti-Dim Advec method for Temp */
(PID.TID 0000.0001)                   T
(PID.TID 0000.0001)     ;
(PID.TID 0000.0001) tempSOM_Advection = /* use 2nd Order Moment Advection for Temp */
(PID.TID 0000.0001)                   F
(PID.TID 0000.0001)     ;
(PID.TID 0000.0001) AdamsBashforthGt = /* apply Adams-Bashforth extrapolation on Gt */
(PID.TID 0000.0001)                   F
(PID.TID 0000.0001)     ;
(PID.TID 0000.0001) AdamsBashforth_T = /* apply Adams-Bashforth extrapolation on Temp */
(PID.TID 0000.0001)                   F
(PID.TID 0000.0001)     ;
(PID.TID 0000.0001) saltAdvScheme =   /* Salt. Horiz.advection scheme selector */
(PID.TID 0000.0001)                      33
(PID.TID 0000.0001)     ;
(PID.TID 0000.0001) saltVertAdvScheme =   /* Salt. Vert. Advection scheme selector */
(PID.TID 0000.0001)                      33
(PID.TID 0000.0001)     ;
(PID.TID 0000.0001) saltMultiDimAdvec =   /* use Muti-Dim Advec method for Salt */
(PID.TID 0000.0001)                   T
(PID.TID 0000.0001)     ;
(PID.TID 0000.0001) saltSOM_Advection = /* use 2nd Order Moment Advection for Salt */
(PID.TID 0000.0001)                   F
(PID.TID 0000.0001)     ;
(PID.TID 0000.0001) AdamsBashforthGs = /* apply Adams-Bashforth extrapolation on Gs */
(PID.TID 0000.0001)                   F
(PID.TID 0000.0001)     ;
(PID.TID 0000.0001) AdamsBashforth_S = /* apply Adams-Bashforth extrapolation on Salt */
(PID.TID 0000.0001)                   F
(PID.TID 0000.0001)     ;
(PID.TID 0000.0001) // ===================================
(PID.TID 0000.0001)  ICEPLUME_INIT_FIXED: Reading initial data:**********  0.000000000000E+00
(PID.TID 0000.0001) ------------------------------------------------------------
(PID.TID 0000.0001) DIAGNOSTICS_SET_LEVELS: done
(PID.TID 0000.0001)  Total Nb of available Diagnostics: ndiagt=   215
(PID.TID 0000.0001)  write list of available Diagnostics to file: available_diagnostics.log
(PID.TID 0000.0001) SETDIAG: Allocate  1 x  1 Levels for Diagnostic #    23 ETAN
(PID.TID 0000.0001) SETDIAG: Allocate  1 x  1 Levels for Diagnostic #    25 DETADT2
(PID.TID 0000.0001) SETDIAG: Allocate  1 x  1 Levels for Diagnostic #    78 PHIBOT
(PID.TID 0000.0001) SETDIAG: Allocate  1 x  1 Levels for Diagnostic #    83 MXLDEPTH
(PID.TID 0000.0001) SETDIAG: Allocate  1 x  1 Levels for Diagnostic #    92 oceQnet
(PID.TID 0000.0001) SETDIAG: Allocate  1 x  1 Levels for Diagnostic #    90 oceFWflx
(PID.TID 0000.0001) SETDIAG: Allocate  1 x  1 Levels for Diagnostic #    86 oceTAUX
(PID.TID 0000.0001) SETDIAG: Allocate  1 x  1 Levels for Diagnostic #    87 oceTAUY
(PID.TID 0000.0001) SETDIAG: Allocate  1 x  1 Levels for Diagnostic #    24 ETANSQ
(PID.TID 0000.0001) SETDIAG: Allocate 15 x  1 Levels for Diagnostic #    26 THETA
(PID.TID 0000.0001) SETDIAG: Allocate 15 x  1 Levels for Diagnostic #    27 SALT
(PID.TID 0000.0001) SETDIAG: Allocate 15 x  1 Levels for Diagnostic #    50 UVELMASS
(PID.TID 0000.0001) SETDIAG: Allocate 15 x  1 Levels for Diagnostic #    51 VVELMASS
(PID.TID 0000.0001) SETDIAG: Allocate 15 x  1 Levels for Diagnostic #    52 WVELMASS
(PID.TID 0000.0001) SETDIAG: Allocate  1 x  1 Levels for Diagnostic #    23 ETAN
(PID.TID 0000.0001) SETDIAG: Allocate  1 x  1 Levels for Diagnostic #    78 PHIBOT
(PID.TID 0000.0001) - NOTE - SETDIAG:  Diagnostic  #    90 oceFWflx is already set
(PID.TID 0000.0001) SETDIAG: Allocate  1 x  1 Levels for Diagnostic #    99 TFLUX
(PID.TID 0000.0001) SETDIAG: Allocate  1 x  1 Levels for Diagnostic #   100 SFLUX
(PID.TID 0000.0001) SETDIAG: Allocate  1 x  1 Levels for Diagnostic #    93 oceQsw
(PID.TID 0000.0001) SETDIAG: Allocate 15 x  1 Levels for Diagnostic #   204 icefrntW
(PID.TID 0000.0001) SETDIAG: Allocate 15 x  1 Levels for Diagnostic #   205 icefrntT
(PID.TID 0000.0001) SETDIAG: Allocate 15 x  1 Levels for Diagnostic #   206 icefrntS
(PID.TID 0000.0001) SETDIAG: Allocate 15 x  1 Levels for Diagnostic #   207 icefrntR
(PID.TID 0000.0001) SETDIAG: Allocate 15 x  1 Levels for Diagnostic #   208 icefrntM
(PID.TID 0000.0001) SETDIAG: Allocate 15 x  1 Levels for Diagnostic #   209 icefrntA
(PID.TID 0000.0001) SETDIAG: Allocate 15 x  1 Levels for Diagnostic #    26 THETA
(PID.TID 0000.0001) SETDIAG: Allocate 15 x  1 Levels for Diagnostic #    27 SALT
(PID.TID 0000.0001) - NOTE - SETDIAG:  Diagnostic  #    50 UVELMASS is already set
(PID.TID 0000.0001) - NOTE - SETDIAG:  Diagnostic  #    51 VVELMASS is already set
(PID.TID 0000.0001) SETDIAG: Allocate 15 x  1 Levels for Diagnostic #   121 ADVx_TH
(PID.TID 0000.0001) SETDIAG: Allocate 15 x  1 Levels for Diagnostic #   122 ADVy_TH
(PID.TID 0000.0001) SETDIAG: Allocate 15 x  1 Levels for Diagnostic #   124 DFxE_TH
(PID.TID 0000.0001) SETDIAG: Allocate 15 x  1 Levels for Diagnostic #   125 DFyE_TH
(PID.TID 0000.0001) SETDIAG: Allocate 15 x  1 Levels for Diagnostic #   128 ADVx_SLT
(PID.TID 0000.0001) SETDIAG: Allocate 15 x  1 Levels for Diagnostic #   129 ADVy_SLT
(PID.TID 0000.0001) SETDIAG: Allocate 15 x  1 Levels for Diagnostic #   131 DFxE_SLT
(PID.TID 0000.0001) SETDIAG: Allocate 15 x  1 Levels for Diagnostic #   132 DFyE_SLT
(PID.TID 0000.0001) SETDIAG: Allocate 15 x  1 Levels for Diagnostic #   113 AB_gT
(PID.TID 0000.0001) SETDIAG: Allocate 15 x  1 Levels for Diagnostic #   114 AB_gS
(PID.TID 0000.0001) SETDIAG: Allocate  1 x  1 Levels for Diagnostic #    96 SRELAX
(PID.TID 0000.0001) SETDIAG: Allocate  1 x  1 Levels for Diagnostic #    95 TRELAX
(PID.TID 0000.0001) SETDIAG: Allocate 15 x  1 Levels for Diagnostic #    57 WTHMASS
(PID.TID 0000.0001) SETDIAG: Allocate 15 x  1 Levels for Diagnostic #    60 WSLTMASS
(PID.TID 0000.0001) SETDIAG: Allocate  1 x  1 Levels for Diagnostic #    91 oceSflux
(PID.TID 0000.0001) - NOTE - SETDIAG:  Diagnostic  #    92 oceQnet  is already set
(PID.TID 0000.0001) - NOTE - SETDIAG:  Diagnostic  #    52 WVELMASS is already set
(PID.TID 0000.0001) SETDIAG: Allocate 15 x  1 Levels for Diagnostic #   120 ADVr_TH
(PID.TID 0000.0001) SETDIAG: Allocate 15 x  1 Levels for Diagnostic #   123 DFrE_TH
(PID.TID 0000.0001) SETDIAG: Allocate 15 x  1 Levels for Diagnostic #   126 DFrI_TH
(PID.TID 0000.0001) SETDIAG: Allocate 15 x  1 Levels for Diagnostic #   127 ADVr_SLT
(PID.TID 0000.0001) SETDIAG: Allocate 15 x  1 Levels for Diagnostic #   130 DFrE_SLT
(PID.TID 0000.0001) SETDIAG: Allocate 15 x  1 Levels for Diagnostic #   133 DFrI_SLT
(PID.TID 0000.0001) - NOTE - SETDIAG:  Diagnostic  #    57 WTHMASS  is already set
(PID.TID 0000.0001) - NOTE - SETDIAG:  Diagnostic  #    60 WSLTMASS is already set
(PID.TID 0000.0001) SETDIAG: Allocate 15 x  1 Levels for Diagnostic #    28 addMass
(PID.TID 0000.0001) SETDIAG: Allocate 15 x  1 Levels for Diagnostic #   214 IPmasspl
(PID.TID 0000.0001) SETDIAG: Allocate 15 x  1 Levels for Diagnostic #   215 IPmassbg
(PID.TID 0000.0001) SETDIAG: Allocate 15 x  1 Levels for Diagnostic #   212 IP_gTplm
(PID.TID 0000.0001) SETDIAG: Allocate 15 x  1 Levels for Diagnostic #   210 IP_gTbg
(PID.TID 0000.0001) SETDIAG: Allocate 15 x  1 Levels for Diagnostic #   213 IP_gSplm
(PID.TID 0000.0001) SETDIAG: Allocate 15 x  1 Levels for Diagnostic #   211 IP_gSbg
(PID.TID 0000.0001) SETDIAG: Allocate 15 x  1 Levels for Diagnostic #    29 gTaddMas
(PID.TID 0000.0001) SETDIAG: Allocate 15 x  1 Levels for Diagnostic #    30 gSaddMas
(PID.TID 0000.0001)   space allocated for all diagnostics:     617 levels
(PID.TID 0000.0001)   set mate pointer for diag #    86  oceTAUX  , Parms: UU      U1 , mate:    87
(PID.TID 0000.0001)   set mate pointer for diag #    87  oceTAUY  , Parms: VV      U1 , mate:    86
(PID.TID 0000.0001)   set mate pointer for diag #    50  UVELMASS , Parms: UUr     MR , mate:    51
(PID.TID 0000.0001)   set mate pointer for diag #    51  VVELMASS , Parms: VVr     MR , mate:    50
(PID.TID 0000.0001)   set mate pointer for diag #    50  UVELMASS , Parms: UUr     MR , mate:    51
(PID.TID 0000.0001)   set mate pointer for diag #    51  VVELMASS , Parms: VVr     MR , mate:    50
(PID.TID 0000.0001)   set mate pointer for diag #   121  ADVx_TH  , Parms: UU      MR , mate:   122
(PID.TID 0000.0001)   set mate pointer for diag #   122  ADVy_TH  , Parms: VV      MR , mate:   121
(PID.TID 0000.0001)   set mate pointer for diag #   124  DFxE_TH  , Parms: UU      MR , mate:   125
(PID.TID 0000.0001)   set mate pointer for diag #   125  DFyE_TH  , Parms: VV      MR , mate:   124
(PID.TID 0000.0001)   set mate pointer for diag #   128  ADVx_SLT , Parms: UU      MR , mate:   129
(PID.TID 0000.0001)   set mate pointer for diag #   129  ADVy_SLT , Parms: VV      MR , mate:   128
(PID.TID 0000.0001)   set mate pointer for diag #   131  DFxE_SLT , Parms: UU      MR , mate:   132
(PID.TID 0000.0001)   set mate pointer for diag #   132  DFyE_SLT , Parms: VV      MR , mate:   131
(PID.TID 0000.0001) DIAGNOSTICS_SET_POINTERS: Set levels for Outp.Stream: diags/state_2d_set1
(PID.TID 0000.0001)  Levels:       1.
(PID.TID 0000.0001) DIAGNOSTICS_SET_POINTERS: Set levels for Outp.Stream: diags/state_3d_set1
(PID.TID 0000.0001)  Levels:       1.   2.   3.   4.   5.   6.   7.   8.   9.  10.  11.  12.  13.  14.  15.
(PID.TID 0000.0001) DIAGNOSTICS_SET_POINTERS: Set levels for Outp.Stream: diags/trsp_3d_set1
(PID.TID 0000.0001)  Levels:       1.   2.   3.   4.   5.   6.   7.   8.   9.  10.  11.  12.  13.  14.  15.
(PID.TID 0000.0001) DIAGNOSTICS_SET_POINTERS: Set levels for Outp.Stream: diags/budg2d_snap_set1
(PID.TID 0000.0001)  Levels:       1.
(PID.TID 0000.0001) DIAGNOSTICS_SET_POINTERS: Set levels for Outp.Stream: diags/budg2d_zflux_set1
(PID.TID 0000.0001)  Levels:       1.
(PID.TID 0000.0001) DIAGNOSTICS_SET_POINTERS: Set levels for Outp.Stream: diags/icefrnt_3d_set1
(PID.TID 0000.0001)  Levels:       1.   2.   3.   4.   5.   6.   7.   8.   9.  10.  11.  12.  13.  14.  15.
(PID.TID 0000.0001) DIAGNOSTICS_SET_POINTERS: Set levels for Outp.Stream: diags/budg3d_snap_set3
(PID.TID 0000.0001)  Levels:       1.   2.   3.   4.   5.   6.   7.   8.   9.  10.  11.  12.  13.  14.  15.
(PID.TID 0000.0001) DIAGNOSTICS_SET_POINTERS: Set levels for Outp.Stream: diags/budg3d_hflux_set2
(PID.TID 0000.0001)  Levels:       1.   2.   3.   4.   5.   6.   7.   8.   9.  10.  11.  12.  13.  14.  15.
(PID.TID 0000.0001) DIAGNOSTICS_SET_POINTERS: Set levels for Outp.Stream: diags/budg2d_zflux_set2
(PID.TID 0000.0001)  Levels:       1.
(PID.TID 0000.0001) DIAGNOSTICS_SET_POINTERS: Set levels for Outp.Stream: diags/budg3d_zflux_set2
(PID.TID 0000.0001)  Levels:       1.   2.   3.   4.   5.   6.   7.   8.   9.  10.  11.  12.  13.  14.  15.
(PID.TID 0000.0001) DIAGNOSTICS_SET_POINTERS: Set levels for Outp.Stream: diags/budg3d_hflux_set3
(PID.TID 0000.0001)  Levels:       1.   2.   3.   4.   5.   6.   7.   8.   9.  10.  11.  12.  13.  14.  15.
(PID.TID 0000.0001) DIAGNOSTICS_SET_POINTERS: Set levels for Outp.Stream: diags/budg3d_tend
(PID.TID 0000.0001)  Levels:       1.   2.   3.   4.   5.   6.   7.   8.   9.  10.  11.  12.  13.  14.  15.
(PID.TID 0000.0001) DIAGNOSTICS_SET_POINTERS: done
(PID.TID 0000.0001) ------------------------------------------------------------
(PID.TID 0000.0001) DIAGSTATS_SET_REGIONS: define no region
(PID.TID 0000.0001) ------------------------------------------------------------
(PID.TID 0000.0001)   space allocated for all stats-diags:       0 levels
(PID.TID 0000.0001) DIAGSTATS_SET_POINTERS: done
(PID.TID 0000.0001) ------------------------------------------------------------
(PID.TID 0000.0001) %MON fCori_max                    =   0.0000000000000E+00
(PID.TID 0000.0001) %MON fCori_min                    =   0.0000000000000E+00
(PID.TID 0000.0001) %MON fCori_mean                   =   0.0000000000000E+00
(PID.TID 0000.0001) %MON fCori_sd                     =   0.0000000000000E+00
(PID.TID 0000.0001) %MON fCoriG_max                   =   0.0000000000000E+00
(PID.TID 0000.0001) %MON fCoriG_min                   =   0.0000000000000E+00
(PID.TID 0000.0001) %MON fCoriG_mean                  =   0.0000000000000E+00
(PID.TID 0000.0001) %MON fCoriG_sd                    =   0.0000000000000E+00
(PID.TID 0000.0001) %MON fCoriCos_max                 =   0.0000000000000E+00
(PID.TID 0000.0001) %MON fCoriCos_min                 =   0.0000000000000E+00
(PID.TID 0000.0001) %MON fCoriCos_mean                =   0.0000000000000E+00
(PID.TID 0000.0001) %MON fCoriCos_sd                  =   0.0000000000000E+00
(PID.TID 0000.0001) INI_CG2D: CG2D normalisation factor =  6.6666666666666671E-03
(PID.TID 0000.0001) 
(PID.TID 0000.0001) // =======================================================
(PID.TID 0000.0001) // Model configuration
(PID.TID 0000.0001) // =======================================================
(PID.TID 0000.0001) //
(PID.TID 0000.0001) // "Physical" paramters ( PARM01 in namelist )
(PID.TID 0000.0001) //
(PID.TID 0000.0001) buoyancyRelation = /* Type of relation to get Buoyancy */
(PID.TID 0000.0001)               'OCEANIC'
(PID.TID 0000.0001)     ;
(PID.TID 0000.0001) fluidIsAir   =  /* fluid major constituent is Air */
(PID.TID 0000.0001)                   F
(PID.TID 0000.0001)     ;
(PID.TID 0000.0001) fluidIsWater =  /* fluid major constituent is Water */
(PID.TID 0000.0001)                   T
(PID.TID 0000.0001)     ;
(PID.TID 0000.0001) usingPCoords =  /* use p (or p*) vertical coordinate */
(PID.TID 0000.0001)                   F
(PID.TID 0000.0001)     ;
(PID.TID 0000.0001) usingZCoords =  /* use z (or z*) vertical coordinate */
(PID.TID 0000.0001)                   T
(PID.TID 0000.0001)     ;
(PID.TID 0000.0001) tRef =   /* Reference temperature profile ( oC or K ) */
(PID.TID 0000.0001)    15 @  0.000000000000000E+00              /* K =  1: 15 */
(PID.TID 0000.0001)     ;
(PID.TID 0000.0001) sRef =   /* Reference salinity profile ( g/kg ) */
(PID.TID 0000.0001)    15 @  3.400000000000000E+01              /* K =  1: 15 */
(PID.TID 0000.0001)     ;
(PID.TID 0000.0001) useStrainTensionVisc= /* Use StrainTension Form of Viscous Operator */
(PID.TID 0000.0001)                   F
(PID.TID 0000.0001)     ;
(PID.TID 0000.0001) useVariableVisc = /* Use variable horizontal viscosity */
(PID.TID 0000.0001)                   T
(PID.TID 0000.0001)     ;
(PID.TID 0000.0001) useHarmonicVisc = /* Use harmonic horizontal viscosity */
(PID.TID 0000.0001)                   T
(PID.TID 0000.0001)     ;
(PID.TID 0000.0001) useBiharmonicVisc= /* Use biharmonic horiz.  viscosity */
(PID.TID 0000.0001)                   F
(PID.TID 0000.0001)     ;
(PID.TID 0000.0001) useSmag3D = /* Use isotropic 3-D Smagorinsky viscosity */
(PID.TID 0000.0001)                   F
(PID.TID 0000.0001)     ;
(PID.TID 0000.0001) viscAh  =   /* Lateral harmonic viscosity ( m^2/s ) */
(PID.TID 0000.0001)                 0.000000000000000E+00
(PID.TID 0000.0001)     ;
(PID.TID 0000.0001) viscAhMax = /* Maximum lateral harmonic viscosity ( m^2/s ) */
(PID.TID 0000.0001)                 1.000000000000000E+21
(PID.TID 0000.0001)     ;
(PID.TID 0000.0001) viscAhGrid = /* Grid dependent lateral harmonic viscosity ( non-dim. ) */
(PID.TID 0000.0001)                 0.000000000000000E+00
(PID.TID 0000.0001)     ;
(PID.TID 0000.0001) useFullLeith = /* Use Full Form of Leith Viscosity on/off flag*/
(PID.TID 0000.0001)                   F
(PID.TID 0000.0001)     ;
(PID.TID 0000.0001) useAreaViscLength = /* Use area for visc length instead of geom. mean*/
(PID.TID 0000.0001)                   F
(PID.TID 0000.0001)     ;
(PID.TID 0000.0001) viscC2leith = /* Leith harmonic visc. factor (on grad(vort),non-dim.) */
(PID.TID 0000.0001)                 0.000000000000000E+00
(PID.TID 0000.0001)     ;
(PID.TID 0000.0001) viscC2leithD = /* Leith harmonic viscosity factor (on grad(div),non-dim.)*/
(PID.TID 0000.0001)                 0.000000000000000E+00
(PID.TID 0000.0001)     ;
(PID.TID 0000.0001) viscC2LeithQG = /* QG Leith harmonic viscosity factor (non-dim.)*/
(PID.TID 0000.0001)                 0.000000000000000E+00
(PID.TID 0000.0001)     ;
(PID.TID 0000.0001) viscC2smag = /* Smagorinsky harmonic viscosity factor (non-dim.) */
(PID.TID 0000.0001)                 2.200000000000000E+00
(PID.TID 0000.0001)     ;
(PID.TID 0000.0001) viscA4  =   /* Lateral biharmonic viscosity ( m^4/s ) */
(PID.TID 0000.0001)                 0.000000000000000E+00
(PID.TID 0000.0001)     ;
(PID.TID 0000.0001) viscA4Max = /* Maximum biharmonic viscosity ( m^2/s ) */
(PID.TID 0000.0001)                 1.000000000000000E+21
(PID.TID 0000.0001)     ;
(PID.TID 0000.0001) viscA4Grid = /* Grid dependent biharmonic viscosity ( non-dim. ) */
(PID.TID 0000.0001)                 0.000000000000000E+00
(PID.TID 0000.0001)     ;
(PID.TID 0000.0001) viscC4leith = /* Leith biharm viscosity factor (on grad(vort), non-dim.)*/
(PID.TID 0000.0001)                 0.000000000000000E+00
(PID.TID 0000.0001)     ;
(PID.TID 0000.0001) viscC4leithD = /* Leith biharm viscosity factor (on grad(div), non-dim.) */
(PID.TID 0000.0001)                 0.000000000000000E+00
(PID.TID 0000.0001)     ;
(PID.TID 0000.0001) viscC4Smag = /* Smagorinsky biharm viscosity factor (non-dim) */
(PID.TID 0000.0001)                 0.000000000000000E+00
(PID.TID 0000.0001)     ;
(PID.TID 0000.0001) no_slip_sides =  /* Viscous BCs: No-slip sides */
(PID.TID 0000.0001)                   F
(PID.TID 0000.0001)     ;
(PID.TID 0000.0001) sideDragFactor = /* side-drag scaling factor (non-dim) */
(PID.TID 0000.0001)                 2.000000000000000E+00
(PID.TID 0000.0001)     ;
(PID.TID 0000.0001) viscArNr = /* vertical profile of vertical viscosity ( m^2/s )*/
(PID.TID 0000.0001)    15 @  1.000000000000000E-05              /* K =  1: 15 */
(PID.TID 0000.0001)     ;
(PID.TID 0000.0001) no_slip_bottom =  /* Viscous BCs: No-slip bottom */
(PID.TID 0000.0001)                   T
(PID.TID 0000.0001)     ;
(PID.TID 0000.0001) bottomVisc_pCell = /* Partial-cell in bottom Visc. BC */
(PID.TID 0000.0001)                   F
(PID.TID 0000.0001)     ;
(PID.TID 0000.0001) bottomDragLinear = /* linear bottom-drag coefficient ( m/s ) */
(PID.TID 0000.0001)                 0.000000000000000E+00
(PID.TID 0000.0001)     ;
(PID.TID 0000.0001) bottomDragQuadratic = /* quadratic bottom-drag coefficient (-) */
(PID.TID 0000.0001)                 0.000000000000000E+00
(PID.TID 0000.0001)     ;
(PID.TID 0000.0001) selectBotDragQuadr = /* select quadratic bottom drag options */
(PID.TID 0000.0001)                      -1
(PID.TID 0000.0001)     ;
(PID.TID 0000.0001) diffKhT =   /* Laplacian diffusion of heat laterally ( m^2/s ) */
(PID.TID 0000.0001)                 2.000000000000000E+01
(PID.TID 0000.0001)     ;
(PID.TID 0000.0001) diffK4T =   /* Biharmonic diffusion of heat laterally ( m^4/s ) */
(PID.TID 0000.0001)                 0.000000000000000E+00
(PID.TID 0000.0001)     ;
(PID.TID 0000.0001) diffKhS =   /* Laplacian diffusion of salt laterally ( m^2/s ) */
(PID.TID 0000.0001)                 2.000000000000000E+01
(PID.TID 0000.0001)     ;
(PID.TID 0000.0001) diffK4S =   /* Biharmonic diffusion of salt laterally ( m^4/s ) */
(PID.TID 0000.0001)                 0.000000000000000E+00
(PID.TID 0000.0001)     ;
(PID.TID 0000.0001) diffKrNrT = /* vertical profile of vertical diffusion of Temp ( m^2/s )*/
(PID.TID 0000.0001)    15 @  1.000000000000000E-05              /* K =  1: 15 */
(PID.TID 0000.0001)     ;
(PID.TID 0000.0001) diffKrNrS = /* vertical profile of vertical diffusion of Salt ( m^2/s )*/
(PID.TID 0000.0001)    15 @  1.000000000000000E-05              /* K =  1: 15 */
(PID.TID 0000.0001)     ;
(PID.TID 0000.0001) diffKrBL79surf = /* Surface diffusion for Bryan and Lewis 79 ( m^2/s ) */
(PID.TID 0000.0001)                 0.000000000000000E+00
(PID.TID 0000.0001)     ;
(PID.TID 0000.0001) diffKrBL79deep = /* Deep diffusion for Bryan and Lewis 1979 ( m^2/s ) */
(PID.TID 0000.0001)                 0.000000000000000E+00
(PID.TID 0000.0001)     ;
(PID.TID 0000.0001) diffKrBL79scl = /* Depth scale for Bryan and Lewis 1979 ( m ) */
(PID.TID 0000.0001)                 2.000000000000000E+02
(PID.TID 0000.0001)     ;
(PID.TID 0000.0001) diffKrBL79Ho = /* Turning depth for Bryan and Lewis 1979 ( m ) */
(PID.TID 0000.0001)                -2.000000000000000E+03
(PID.TID 0000.0001)     ;
(PID.TID 0000.0001) ivdc_kappa = /* Implicit Vertical Diffusivity for Convection ( m^2/s) */
(PID.TID 0000.0001)                 0.000000000000000E+00
(PID.TID 0000.0001)     ;
(PID.TID 0000.0001) hMixCriteria=  /* Criteria for mixed-layer diagnostic */
(PID.TID 0000.0001)                -8.000000000000000E-01
(PID.TID 0000.0001)     ;
(PID.TID 0000.0001) dRhoSmall =  /* Parameter for mixed-layer diagnostic */
(PID.TID 0000.0001)                 1.000000000000000E-06
(PID.TID 0000.0001)     ;
(PID.TID 0000.0001) hMixSmooth=  /* Smoothing parameter for mixed-layer diagnostic */
(PID.TID 0000.0001)                 0.000000000000000E+00
(PID.TID 0000.0001)     ;
(PID.TID 0000.0001) eosType =  /* Type of Equation of State */
(PID.TID 0000.0001)               'JMD95Z'
(PID.TID 0000.0001)     ;
(PID.TID 0000.0001) eosRefP0 = /* Reference atmospheric pressure for EOS ( Pa ) */
(PID.TID 0000.0001)                 1.013250000000000E+05
(PID.TID 0000.0001)     ;
(PID.TID 0000.0001) selectP_inEOS_Zc = /* select pressure to use in EOS (0,1,2,3) */
(PID.TID 0000.0001)                       0
(PID.TID 0000.0001)     0= -g*rhoConst*z ; 1= pRef (from tRef,sRef); 2= Hyd P ; 3= Hyd+NH P
(PID.TID 0000.0001)     ;
(PID.TID 0000.0001) surf_pRef = /* Surface reference pressure ( Pa ) */
(PID.TID 0000.0001)                 1.013250000000000E+05
(PID.TID 0000.0001)     ;
(PID.TID 0000.0001) HeatCapacity_Cp =  /* Specific heat capacity ( J/kg/K ) */
(PID.TID 0000.0001)                 3.994000000000000E+03
(PID.TID 0000.0001)     ;
(PID.TID 0000.0001) celsius2K = /* 0 degree Celsius converted to Kelvin ( K ) */
(PID.TID 0000.0001)                 2.731500000000000E+02
(PID.TID 0000.0001)     ;
(PID.TID 0000.0001) rhoConst  = /* Reference density (Boussinesq)  ( kg/m^3 ) */
(PID.TID 0000.0001)                 1.029000000000000E+03
(PID.TID 0000.0001)     ;
(PID.TID 0000.0001) rhoFacC = /* normalized Reference density @ cell-Center (-) */
(PID.TID 0000.0001)    15 @  1.000000000000000E+00              /* K =  1: 15 */
(PID.TID 0000.0001)     ;
(PID.TID 0000.0001) rhoFacF = /* normalized Reference density @ W-Interface (-) */
(PID.TID 0000.0001)    16 @  1.000000000000000E+00              /* K =  1: 16 */
(PID.TID 0000.0001)     ;
(PID.TID 0000.0001) rhoConstFresh = /* Fresh-water reference density ( kg/m^3 ) */
(PID.TID 0000.0001)                 1.000000000000000E+03
(PID.TID 0000.0001)     ;
(PID.TID 0000.0001) gravity =   /* Gravitational acceleration ( m/s^2 ) */
(PID.TID 0000.0001)                 9.810000000000000E+00
(PID.TID 0000.0001)     ;
(PID.TID 0000.0001) gBaro =   /* Barotropic gravity ( m/s^2 ) */
(PID.TID 0000.0001)                 9.810000000000000E+00
(PID.TID 0000.0001)     ;
(PID.TID 0000.0001) gravFacC = /* gravity factor (vs surf.) @ cell-Center (-) */
(PID.TID 0000.0001)    15 @  1.000000000000000E+00              /* K =  1: 15 */
(PID.TID 0000.0001)     ;
(PID.TID 0000.0001) gravFacF = /* gravity factor (vs surf.) @ W-Interface (-) */
(PID.TID 0000.0001)    16 @  1.000000000000000E+00              /* K =  1: 16 */
(PID.TID 0000.0001)     ;
(PID.TID 0000.0001) rotationPeriod =   /* Rotation Period ( s ) */
(PID.TID 0000.0001)                 8.616400000000000E+04
(PID.TID 0000.0001)     ;
(PID.TID 0000.0001) omega =   /* Angular velocity ( rad/s ) */
(PID.TID 0000.0001)                 7.292123516990375E-05
(PID.TID 0000.0001)     ;
(PID.TID 0000.0001) f0 =   /* Reference coriolis parameter ( 1/s ) */
(PID.TID 0000.0001)                 0.000000000000000E+00
(PID.TID 0000.0001)     ;
(PID.TID 0000.0001) beta =   /* Beta ( 1/(m.s) ) */
(PID.TID 0000.0001)                 0.000000000000000E+00
(PID.TID 0000.0001)     ;
(PID.TID 0000.0001) fPrime =   /* Second coriolis parameter ( 1/s ) */
(PID.TID 0000.0001)                 0.000000000000000E+00
(PID.TID 0000.0001)     ;
(PID.TID 0000.0001) rigidLid =   /* Rigid lid on/off flag */
(PID.TID 0000.0001)                   F
(PID.TID 0000.0001)     ;
(PID.TID 0000.0001) implicitFreeSurface =   /* Implicit free surface on/off flag */
(PID.TID 0000.0001)                   T
(PID.TID 0000.0001)     ;
(PID.TID 0000.0001) freeSurfFac =   /* Implicit free surface factor */
(PID.TID 0000.0001)                 1.000000000000000E+00
(PID.TID 0000.0001)     ;
(PID.TID 0000.0001) implicSurfPress =  /* Surface Pressure implicit factor (0-1) */
(PID.TID 0000.0001)                 1.000000000000000E+00
(PID.TID 0000.0001)     ;
(PID.TID 0000.0001) implicDiv2DFlow =  /* Barot. Flow Div. implicit factor (0-1) */
(PID.TID 0000.0001)                 1.000000000000000E+00
(PID.TID 0000.0001)     ;
(PID.TID 0000.0001) uniformLin_PhiSurf = /* use uniform Bo_surf on/off flag */
(PID.TID 0000.0001)                   T
(PID.TID 0000.0001)     ;
(PID.TID 0000.0001) uniformFreeSurfLev = /* free-surface level-index is uniform */
(PID.TID 0000.0001)                   T
(PID.TID 0000.0001)     ;
(PID.TID 0000.0001) sIceLoadFac =  /* scale factor for sIceLoad (0-1) */
(PID.TID 0000.0001)                 1.000000000000000E+00
(PID.TID 0000.0001)     ;
(PID.TID 0000.0001) hFacMin =   /* minimum partial cell factor (hFac) */
(PID.TID 0000.0001)                 1.000000000000000E+00
(PID.TID 0000.0001)     ;
(PID.TID 0000.0001) hFacMinDr = /* minimum partial cell thickness ( m) */
(PID.TID 0000.0001)                 0.000000000000000E+00
(PID.TID 0000.0001)     ;
(PID.TID 0000.0001) exactConserv =  /* Exact Volume Conservation on/off flag */
(PID.TID 0000.0001)                   T
(PID.TID 0000.0001)     ;
(PID.TID 0000.0001) linFSConserveTr = /* Tracer correction for Lin Free Surface on/off flag */
(PID.TID 0000.0001)                   F
(PID.TID 0000.0001)     ;
(PID.TID 0000.0001) nonlinFreeSurf = /* Non-linear Free Surf. options (-1,0,1,2,3)*/
(PID.TID 0000.0001)                       4
(PID.TID 0000.0001)      -1,0= Off ; 1,2,3= On, 2=+rescale gU,gV, 3=+update cg2d solv.
(PID.TID 0000.0001)     ;
(PID.TID 0000.0001) hFacInf =   /* lower threshold for hFac (nonlinFreeSurf only)*/
(PID.TID 0000.0001)                 2.000000000000000E-01
(PID.TID 0000.0001)     ;
(PID.TID 0000.0001) hFacSup =   /* upper threshold for hFac (nonlinFreeSurf only)*/
(PID.TID 0000.0001)                 2.000000000000000E+00
(PID.TID 0000.0001)     ;
(PID.TID 0000.0001) select_rStar = /* r* Vertical coord. options (=0 r coord.; >0 uses r*)*/
(PID.TID 0000.0001)                       2
(PID.TID 0000.0001)     ;
(PID.TID 0000.0001) useRealFreshWaterFlux = /* Real Fresh Water Flux on/off flag*/
(PID.TID 0000.0001)                   T
(PID.TID 0000.0001)     ;
(PID.TID 0000.0001) temp_EvPrRn = /* Temp. of Evap/Prec/R (UNSET=use local T)(oC)*/
(PID.TID 0000.0001)                 1.234567000000000E+05
(PID.TID 0000.0001)     ;
(PID.TID 0000.0001) salt_EvPrRn = /* Salin. of Evap/Prec/R (UNSET=use local S)(g/kg)*/
(PID.TID 0000.0001)                 0.000000000000000E+00
(PID.TID 0000.0001)     ;
(PID.TID 0000.0001) selectAddFluid = /* option for mass source/sink of fluid (=0: off) */
(PID.TID 0000.0001)                       1
(PID.TID 0000.0001)     ;
(PID.TID 0000.0001) temp_addMass = /* Temp. of addMass array (UNSET=use local T)(oC)*/
(PID.TID 0000.0001)                 1.234567000000000E+05
(PID.TID 0000.0001)     ;
(PID.TID 0000.0001) salt_addMass = /* Salin. of addMass array (UNSET=use local S)(g/kg)*/
(PID.TID 0000.0001)                 1.234567000000000E+05
(PID.TID 0000.0001)     ;
(PID.TID 0000.0001) use3Dsolver = /* use 3-D pressure solver on/off flag */
(PID.TID 0000.0001)                   F
(PID.TID 0000.0001)     ;
(PID.TID 0000.0001) nonHydrostatic =  /* Non-Hydrostatic on/off flag */
(PID.TID 0000.0001)                   F
(PID.TID 0000.0001)     ;
(PID.TID 0000.0001) nh_Am2 = /* Non-Hydrostatic terms scaling factor */
(PID.TID 0000.0001)                 1.000000000000000E+00
(PID.TID 0000.0001)     ;
(PID.TID 0000.0001) implicitNHPress = /* Non-Hyd Pressure implicit factor (0-1)*/
(PID.TID 0000.0001)                 1.000000000000000E+00
(PID.TID 0000.0001)     ;
(PID.TID 0000.0001) selectNHfreeSurf = /* Non-Hyd (free-)Surface option */
(PID.TID 0000.0001)                       0
(PID.TID 0000.0001)     ;
(PID.TID 0000.0001) quasiHydrostatic = /* Quasi-Hydrostatic on/off flag */
(PID.TID 0000.0001)                   F
(PID.TID 0000.0001)     ;
(PID.TID 0000.0001) calc_wVelocity = /* vertical velocity calculation on/off flag */
(PID.TID 0000.0001)                   T
(PID.TID 0000.0001)     ;
(PID.TID 0000.0001) momStepping =  /* Momentum equation on/off flag */
(PID.TID 0000.0001)                   T
(PID.TID 0000.0001)     ;
(PID.TID 0000.0001) vectorInvariantMomentum= /* Vector-Invariant Momentum on/off */
(PID.TID 0000.0001)                   F
(PID.TID 0000.0001)     ;
(PID.TID 0000.0001) momAdvection =  /* Momentum advection on/off flag */
(PID.TID 0000.0001)                   T
(PID.TID 0000.0001)     ;
(PID.TID 0000.0001) momViscosity =  /* Momentum viscosity on/off flag */
(PID.TID 0000.0001)                   T
(PID.TID 0000.0001)     ;
(PID.TID 0000.0001) momImplVertAdv= /* Momentum implicit vert. advection on/off*/
(PID.TID 0000.0001)                   F
(PID.TID 0000.0001)     ;
(PID.TID 0000.0001) implicitViscosity = /* Implicit viscosity on/off flag */
(PID.TID 0000.0001)                   F
(PID.TID 0000.0001)     ;
(PID.TID 0000.0001) selectImplicitDrag= /* Implicit bot Drag options (0,1,2)*/
(PID.TID 0000.0001)                       0
(PID.TID 0000.0001)     0= Expl. ; 1= Impl. on provis. Vel ; 2= Fully Impl (with surf.P)
(PID.TID 0000.0001)     ;
(PID.TID 0000.0001) metricTerms =  /* metric-Terms on/off flag */
(PID.TID 0000.0001)                   F
(PID.TID 0000.0001)     ;
(PID.TID 0000.0001) useNHMTerms = /* Non-Hydrostatic Metric-Terms on/off */
(PID.TID 0000.0001)                   F
(PID.TID 0000.0001)     ;
(PID.TID 0000.0001) selectCoriMap = /* Coriolis Map options (0,1,2,3)*/
(PID.TID 0000.0001)                       1
(PID.TID 0000.0001)     0= f-Plane ; 1= Beta-Plane ; 2= Spherical ; 3= read from file
(PID.TID 0000.0001)     ;
(PID.TID 0000.0001) use3dCoriolis = /* 3-D Coriolis on/off flag */
(PID.TID 0000.0001)                   F
(PID.TID 0000.0001)     ;
(PID.TID 0000.0001) useCoriolis =  /* Coriolis on/off flag */
(PID.TID 0000.0001)                   T
(PID.TID 0000.0001)     ;
(PID.TID 0000.0001) useCDscheme =  /* CD scheme on/off flag */
(PID.TID 0000.0001)                   F
(PID.TID 0000.0001)     ;
(PID.TID 0000.0001) selectCoriScheme= /* Scheme selector for Coriolis-Term */
(PID.TID 0000.0001)                       0
(PID.TID 0000.0001)    = 0 : original discretization (simple averaging, no hFac)
(PID.TID 0000.0001)    = 1 : Wet-point averaging (Jamar & Ozer 1986)
(PID.TID 0000.0001)    = 2 : energy conserving scheme (no hFac weight)
(PID.TID 0000.0001)    = 3 : energy conserving scheme using Wet-point averaging
(PID.TID 0000.0001)     ;
(PID.TID 0000.0001) momForcing =  /* Momentum forcing on/off flag */
(PID.TID 0000.0001)                   T
(PID.TID 0000.0001)     ;
(PID.TID 0000.0001) momTidalForcing = /* Momentum Tidal forcing on/off flag */
(PID.TID 0000.0001)                   T
(PID.TID 0000.0001)     ;
(PID.TID 0000.0001) momPressureForcing =  /* Momentum pressure term on/off flag */
(PID.TID 0000.0001)                   T
(PID.TID 0000.0001)     ;
(PID.TID 0000.0001) implicitIntGravWave= /* Implicit Internal Gravity Wave flag */
(PID.TID 0000.0001)                   F
(PID.TID 0000.0001)     ;
(PID.TID 0000.0001) staggerTimeStep =    /* Stagger time stepping on/off flag */
(PID.TID 0000.0001)                   T
(PID.TID 0000.0001)     ;
(PID.TID 0000.0001) doResetHFactors = /* reset thickness factors @ each time-step */
(PID.TID 0000.0001)                   F
(PID.TID 0000.0001)     ;
(PID.TID 0000.0001) multiDimAdvection =  /* enable/disable Multi-Dim Advection */
(PID.TID 0000.0001)                   T
(PID.TID 0000.0001)     ;
(PID.TID 0000.0001) useMultiDimAdvec =   /* Multi-Dim Advection is/is-not used */
(PID.TID 0000.0001)                   T
(PID.TID 0000.0001)     ;
(PID.TID 0000.0001) implicitDiffusion = /* Implicit Diffusion on/off flag */
(PID.TID 0000.0001)                   F
(PID.TID 0000.0001)     ;
(PID.TID 0000.0001) tempStepping =  /* Temperature equation on/off flag */
(PID.TID 0000.0001)                   T
(PID.TID 0000.0001)     ;
(PID.TID 0000.0001) tempAdvection = /* Temperature advection on/off flag */
(PID.TID 0000.0001)                   T
(PID.TID 0000.0001)     ;
(PID.TID 0000.0001) tempImplVertAdv = /* Temp. implicit vert. advection on/off */
(PID.TID 0000.0001)                   F
(PID.TID 0000.0001)     ;
(PID.TID 0000.0001) tempForcing  =  /* Temperature forcing on/off flag */
(PID.TID 0000.0001)                   T
(PID.TID 0000.0001)     ;
(PID.TID 0000.0001) doThetaClimRelax = /* apply SST relaxation on/off flag */
(PID.TID 0000.0001)                   F
(PID.TID 0000.0001)     ;
(PID.TID 0000.0001) tempIsActiveTr = /* Temp. is a dynamically Active Tracer */
(PID.TID 0000.0001)                   T
(PID.TID 0000.0001)     ;
(PID.TID 0000.0001) saltStepping =  /* Salinity equation on/off flag */
(PID.TID 0000.0001)                   T
(PID.TID 0000.0001)     ;
(PID.TID 0000.0001) saltAdvection = /* Salinity advection on/off flag */
(PID.TID 0000.0001)                   T
(PID.TID 0000.0001)     ;
(PID.TID 0000.0001) saltImplVertAdv = /* Sali. implicit vert. advection on/off */
(PID.TID 0000.0001)                   F
(PID.TID 0000.0001)     ;
(PID.TID 0000.0001) saltForcing  =  /* Salinity forcing on/off flag */
(PID.TID 0000.0001)                   T
(PID.TID 0000.0001)     ;
(PID.TID 0000.0001) doSaltClimRelax = /* apply SSS relaxation on/off flag */
(PID.TID 0000.0001)                   F
(PID.TID 0000.0001)     ;
(PID.TID 0000.0001) saltIsActiveTr = /* Salt  is a dynamically Active Tracer */
(PID.TID 0000.0001)                   T
(PID.TID 0000.0001)     ;
(PID.TID 0000.0001)  readBinaryPrec = /* Precision used for reading binary files */
(PID.TID 0000.0001)                      64
(PID.TID 0000.0001)     ;
(PID.TID 0000.0001) writeBinaryPrec = /* Precision used for writing binary files */
(PID.TID 0000.0001)                      64
(PID.TID 0000.0001)     ;
(PID.TID 0000.0001)  rwSuffixType =   /* select format of mds file suffix */
(PID.TID 0000.0001)                       0
(PID.TID 0000.0001)    = 0 : myIter (I10.10) ;   = 1 : 100*myTime (100th sec) ;
(PID.TID 0000.0001)    = 2 : myTime (seconds);   = 3 : myTime/360 (10th of hr);
(PID.TID 0000.0001)    = 4 : myTime/3600 (hours)
(PID.TID 0000.0001)     ;
(PID.TID 0000.0001)  globalFiles = /* write "global" (=not per tile) files */
(PID.TID 0000.0001)                   F
(PID.TID 0000.0001)     ;
(PID.TID 0000.0001)  useSingleCpuIO = /* only master MPI process does I/O */
(PID.TID 0000.0001)                   T
(PID.TID 0000.0001)     ;
(PID.TID 0000.0001)  useSingleCpuInput = /* only master process reads input */
(PID.TID 0000.0001)                   T
(PID.TID 0000.0001)     ;
(PID.TID 0000.0001) /* debLev[*]  : level of debug & auxiliary message printing */
(PID.TID 0000.0001) debLevZero =  0 ; /* level of disabled aux. msg printing */
(PID.TID 0000.0001)    debLevA =  1 ; /* level of minimum  aux. msg printing */
(PID.TID 0000.0001)    debLevB =  2 ; /* level of low aux. print (report read-file opening)*/
(PID.TID 0000.0001)    debLevC =  3 ; /* level of moderate debug prt (most pkgs debug msg) */
(PID.TID 0000.0001)    debLevD =  4 ; /* level of enhanced debug prt (add DEBUG_STATS prt) */
(PID.TID 0000.0001)    debLevE =  5 ; /* level of extensive debug printing */
(PID.TID 0000.0001) debugLevel =  /* select debug printing level */
(PID.TID 0000.0001)                       1
(PID.TID 0000.0001)     ;
(PID.TID 0000.0001)  plotLevel =  /* select PLOT_FIELD printing level */
(PID.TID 0000.0001)                       1
(PID.TID 0000.0001)     ;
(PID.TID 0000.0001) //
(PID.TID 0000.0001) // Elliptic solver(s) paramters ( PARM02 in namelist )
(PID.TID 0000.0001) //
(PID.TID 0000.0001) cg2dMaxIters =   /* Upper limit on 2d con. grad iterations  */
(PID.TID 0000.0001)                     150
(PID.TID 0000.0001)     ;
(PID.TID 0000.0001) cg2dMinItersNSA =   /* Minimum number of iterations of 2d con. grad solver  */
(PID.TID 0000.0001)                       0
(PID.TID 0000.0001)     ;
(PID.TID 0000.0001) cg2dUseMinResSol= /* use cg2d last-iter(=0) / min-resid.(=1) solution */
(PID.TID 0000.0001)                       0
(PID.TID 0000.0001)     ;
(PID.TID 0000.0001) cg2dTargetResidual =   /* 2d con. grad target residual  */
(PID.TID 0000.0001)                 1.000000000000000E-07
(PID.TID 0000.0001)     ;
(PID.TID 0000.0001) cg2dTargetResWunit =   /* CG2d target residual [W units] */
(PID.TID 0000.0001)                -1.000000000000000E+00
(PID.TID 0000.0001)     ;
(PID.TID 0000.0001) cg2dPreCondFreq =   /* Freq. for updating cg2d preconditioner */
(PID.TID 0000.0001)                       1
(PID.TID 0000.0001)     ;
(PID.TID 0000.0001) useSRCGSolver =  /* use single reduction CG solver(s) */
(PID.TID 0000.0001)                   F
(PID.TID 0000.0001)     ;
(PID.TID 0000.0001) useNSACGSolver =  /* use not-self-adjoint CG solver */
(PID.TID 0000.0001)                   F
(PID.TID 0000.0001)     ;
(PID.TID 0000.0001) printResidualFreq = /* Freq. for printing CG residual */
(PID.TID 0000.0001)                       0
(PID.TID 0000.0001)     ;
(PID.TID 0000.0001) //
(PID.TID 0000.0001) // Time stepping paramters ( PARM03 in namelist )
(PID.TID 0000.0001) //
(PID.TID 0000.0001) deltaTMom =   /* Momentum equation timestep ( s ) */
(PID.TID 0000.0001)                 2.500000000000000E+01
(PID.TID 0000.0001)     ;
(PID.TID 0000.0001) deltaTFreeSurf = /* FreeSurface equation timestep ( s ) */
(PID.TID 0000.0001)                 2.500000000000000E+01
(PID.TID 0000.0001)     ;
(PID.TID 0000.0001) dTtracerLev =  /* Tracer equation timestep ( s ) */
(PID.TID 0000.0001)    15 @  2.500000000000000E+01              /* K =  1: 15 */
(PID.TID 0000.0001)     ;
(PID.TID 0000.0001) deltaTClock  =   /* Model clock timestep ( s ) */
(PID.TID 0000.0001)                 2.500000000000000E+01
(PID.TID 0000.0001)     ;
(PID.TID 0000.0001) cAdjFreq =   /* Convective adjustment interval ( s ) */
(PID.TID 0000.0001)                 0.000000000000000E+00
(PID.TID 0000.0001)     ;
(PID.TID 0000.0001) momForcingOutAB = /* =1: take Momentum Forcing out of Adams-Bash. stepping */
(PID.TID 0000.0001)                       0
(PID.TID 0000.0001)     ;
(PID.TID 0000.0001) tracForcingOutAB = /* =1: take T,S,pTr Forcing out of Adams-Bash. stepping */
(PID.TID 0000.0001)                       0
(PID.TID 0000.0001)     ;
(PID.TID 0000.0001) momDissip_In_AB = /* put Dissipation Tendency in Adams-Bash. stepping */
(PID.TID 0000.0001)                   T
(PID.TID 0000.0001)     ;
(PID.TID 0000.0001) doAB_onGtGs = /* apply AB on Tendencies (rather than on T,S)*/
(PID.TID 0000.0001)                   T
(PID.TID 0000.0001)     ;
(PID.TID 0000.0001) abEps =   /* Adams-Bashforth-2 stabilizing weight */
(PID.TID 0000.0001)                 1.000000000000000E-02
(PID.TID 0000.0001)     ;
(PID.TID 0000.0001) applyExchUV_early = /* Apply EXCH to U,V earlier in time-step */
(PID.TID 0000.0001)                   F
(PID.TID 0000.0001)     ;
(PID.TID 0000.0001) pickupStrictlyMatch= /* stop if pickup do not strictly match */
(PID.TID 0000.0001)                   T
(PID.TID 0000.0001)     ;
(PID.TID 0000.0001) nIter0   =   /* Run starting timestep number */
(PID.TID 0000.0001)                       0
(PID.TID 0000.0001)     ;
(PID.TID 0000.0001) nTimeSteps = /* Number of timesteps */
(PID.TID 0000.0001)                       8
(PID.TID 0000.0001)     ;
(PID.TID 0000.0001) nEndIter =   /* Run ending timestep number */
(PID.TID 0000.0001)                       8
(PID.TID 0000.0001)     ;
(PID.TID 0000.0001) baseTime =   /* Model base time ( s ) */
(PID.TID 0000.0001)                 0.000000000000000E+00
(PID.TID 0000.0001)     ;
(PID.TID 0000.0001) startTime =  /* Run start time ( s ) */
(PID.TID 0000.0001)                 0.000000000000000E+00
(PID.TID 0000.0001)     ;
(PID.TID 0000.0001) endTime  =   /* Integration ending time ( s ) */
(PID.TID 0000.0001)                 2.000000000000000E+02
(PID.TID 0000.0001)     ;
(PID.TID 0000.0001) pChkPtFreq = /* Permanent restart/pickup file interval ( s ) */
(PID.TID 0000.0001)                 0.000000000000000E+00
(PID.TID 0000.0001)     ;
(PID.TID 0000.0001) chkPtFreq  = /* Rolling restart/pickup file interval ( s ) */
(PID.TID 0000.0001)                 0.000000000000000E+00
(PID.TID 0000.0001)     ;
(PID.TID 0000.0001) pickup_write_mdsio =   /* Model IO flag. */
(PID.TID 0000.0001)                   T
(PID.TID 0000.0001)     ;
(PID.TID 0000.0001) pickup_read_mdsio =   /* Model IO flag. */
(PID.TID 0000.0001)                   T
(PID.TID 0000.0001)     ;
(PID.TID 0000.0001) writePickupAtEnd =   /* Model IO flag. */
(PID.TID 0000.0001)                   T
(PID.TID 0000.0001)     ;
(PID.TID 0000.0001) dumpFreq =   /* Model state write out interval ( s ). */
(PID.TID 0000.0001)                 0.000000000000000E+00
(PID.TID 0000.0001)     ;
(PID.TID 0000.0001) dumpInitAndLast= /* write out Initial & Last iter. model state */
(PID.TID 0000.0001)                   T
(PID.TID 0000.0001)     ;
(PID.TID 0000.0001) snapshot_mdsio =   /* Model IO flag. */
(PID.TID 0000.0001)                   T
(PID.TID 0000.0001)     ;
(PID.TID 0000.0001) monitorFreq =   /* Monitor output interval ( s ). */
(PID.TID 0000.0001)                 1.000000000000000E+00
(PID.TID 0000.0001)     ;
(PID.TID 0000.0001) monitorSelect = /* select group of variables to monitor */
(PID.TID 0000.0001)                       1
(PID.TID 0000.0001)     ;
(PID.TID 0000.0001) monitor_stdio =   /* Model IO flag. */
(PID.TID 0000.0001)                   T
(PID.TID 0000.0001)     ;
(PID.TID 0000.0001) externForcingPeriod =   /* forcing period (s) */
(PID.TID 0000.0001)                 0.000000000000000E+00
(PID.TID 0000.0001)     ;
(PID.TID 0000.0001) externForcingCycle =   /* period of the cyle (s). */
(PID.TID 0000.0001)                 0.000000000000000E+00
(PID.TID 0000.0001)     ;
(PID.TID 0000.0001) tauThetaClimRelax =   /* relaxation time scale (s) */
(PID.TID 0000.0001)                 0.000000000000000E+00
(PID.TID 0000.0001)     ;
(PID.TID 0000.0001) tauSaltClimRelax =   /* relaxation time scale (s) */
(PID.TID 0000.0001)                 0.000000000000000E+00
(PID.TID 0000.0001)     ;
(PID.TID 0000.0001) latBandClimRelax =   /* max. Lat. where relaxation */
(PID.TID 0000.0001)                 6.600000000000000E+03
(PID.TID 0000.0001)     ;
(PID.TID 0000.0001) //
(PID.TID 0000.0001) // Gridding paramters ( PARM04 in namelist )
(PID.TID 0000.0001) //
(PID.TID 0000.0001) usingCartesianGrid = /* Cartesian coordinates flag ( True/False ) */
(PID.TID 0000.0001)                   T
(PID.TID 0000.0001)     ;
(PID.TID 0000.0001) usingCylindricalGrid = /* Cylindrical coordinates flag ( True/False ) */
(PID.TID 0000.0001)                   F
(PID.TID 0000.0001)     ;
(PID.TID 0000.0001) usingSphericalPolarGrid = /* Spherical coordinates flag ( True/False ) */
(PID.TID 0000.0001)                   F
(PID.TID 0000.0001)     ;
(PID.TID 0000.0001) usingCurvilinearGrid = /* Curvilinear coordinates flag ( True/False ) */
(PID.TID 0000.0001)                   F
(PID.TID 0000.0001)     ;
(PID.TID 0000.0001) useMin4hFacEdges = /* set hFacW,S as minimum of adjacent hFacC factor */
(PID.TID 0000.0001)                   F
(PID.TID 0000.0001)     ;
(PID.TID 0000.0001) interViscAr_pCell = /* account for partial-cell in interior vert. viscosity */
(PID.TID 0000.0001)                   F
(PID.TID 0000.0001)     ;
(PID.TID 0000.0001) interDiffKr_pCell = /* account for partial-cell in interior vert. diffusion */
(PID.TID 0000.0001)                   F
(PID.TID 0000.0001)     ;
(PID.TID 0000.0001) pCellMix_select = /* option to enhance mixing near surface & bottom */
(PID.TID 0000.0001)                       0
(PID.TID 0000.0001)     ;
(PID.TID 0000.0001) selectSigmaCoord = /* Hybrid-Sigma Vert. Coordinate option */
(PID.TID 0000.0001)                       0
(PID.TID 0000.0001)     ;
(PID.TID 0000.0001) rSigmaBnd = /* r/sigma transition ( units of r ==  m ) */
(PID.TID 0000.0001)                 1.234567000000000E+05
(PID.TID 0000.0001)     ;
(PID.TID 0000.0001) rkSign =   /* index orientation relative to vertical coordinate */
(PID.TID 0000.0001)                -1.000000000000000E+00
(PID.TID 0000.0001)     ;
(PID.TID 0000.0001) gravitySign = /* gravity orientation relative to vertical coordinate */
(PID.TID 0000.0001)                -1.000000000000000E+00
(PID.TID 0000.0001)     ;
(PID.TID 0000.0001) seaLev_Z =  /* reference height of sea-level [m] */
(PID.TID 0000.0001)                 0.000000000000000E+00
(PID.TID 0000.0001)     ;
(PID.TID 0000.0001) top_Pres =  /* reference pressure at the top [Pa] */
(PID.TID 0000.0001)                 0.000000000000000E+00
(PID.TID 0000.0001)     ;
(PID.TID 0000.0001) mass2rUnit = /* convert mass per unit area [kg/m2] to r-units [m] */
(PID.TID 0000.0001)                 9.718172983479105E-04
(PID.TID 0000.0001)     ;
(PID.TID 0000.0001) rUnit2mass = /* convert r-units [m] to mass per unit area [kg/m2] */
(PID.TID 0000.0001)                 1.029000000000000E+03
(PID.TID 0000.0001)     ;
(PID.TID 0000.0001) drC =   /* C spacing ( units of r ) */
(PID.TID 0000.0001)                 5.000000000000000E+00,      /* K =  1 */
(PID.TID 0000.0001)    14 @  1.000000000000000E+01,             /* K =  2: 15 */
(PID.TID 0000.0001)                 5.000000000000000E+00       /* K = 16 */
(PID.TID 0000.0001)     ;
(PID.TID 0000.0001) drF =   /* W spacing ( units of r ) */
(PID.TID 0000.0001)    15 @  1.000000000000000E+01              /* K =  1: 15 */
(PID.TID 0000.0001)     ;
(PID.TID 0000.0001) delX = /* U spacing ( m - cartesian, degrees - spherical ) */
(PID.TID 0000.0001)    20 @  2.000000000000000E+02              /* I =  1: 20 */
(PID.TID 0000.0001)     ;
(PID.TID 0000.0001) delY = /* V spacing ( m - cartesian, degrees - spherical ) */
(PID.TID 0000.0001)    11 @  2.000000000000000E+02              /* J =  1: 11 */
(PID.TID 0000.0001)     ;
(PID.TID 0000.0001) xgOrigin = /* X-axis origin of West  edge (cartesian: m, lat-lon: deg) */
(PID.TID 0000.0001)                 0.000000000000000E+00
(PID.TID 0000.0001)     ;
(PID.TID 0000.0001) ygOrigin = /* Y-axis origin of South edge (cartesian: m, lat-lon: deg) */
(PID.TID 0000.0001)                 0.000000000000000E+00
(PID.TID 0000.0001)     ;
(PID.TID 0000.0001) rSphere =  /* Radius ( ignored - cartesian, m - spherical ) */
(PID.TID 0000.0001)                 6.370000000000000E+06
(PID.TID 0000.0001)     ;
(PID.TID 0000.0001) deepAtmosphere = /* Deep/Shallow Atmosphere flag (True/False) */
(PID.TID 0000.0001)                   F
(PID.TID 0000.0001)     ;
(PID.TID 0000.0001) xC =  /* xC(:,1,:,1) : P-point X coord ( deg. or m if cartesian) */
(PID.TID 0000.0001)                 1.000000000000000E+02,      /* I =  1 */
(PID.TID 0000.0001)                 3.000000000000000E+02,      /* I =  2 */
(PID.TID 0000.0001)                 5.000000000000000E+02,      /* I =  3 */
(PID.TID 0000.0001)                 7.000000000000000E+02,      /* I =  4 */
(PID.TID 0000.0001)                 9.000000000000000E+02,      /* I =  5 */
(PID.TID 0000.0001)                 1.100000000000000E+03,      /* I =  6 */
(PID.TID 0000.0001)                 1.300000000000000E+03,      /* I =  7 */
(PID.TID 0000.0001)                 1.500000000000000E+03,      /* I =  8 */
(PID.TID 0000.0001)                 1.700000000000000E+03,      /* I =  9 */
(PID.TID 0000.0001)                 1.900000000000000E+03,      /* I = 10 */
(PID.TID 0000.0001)                 2.100000000000000E+03,      /* I = 11 */
(PID.TID 0000.0001)                 2.300000000000000E+03,      /* I = 12 */
(PID.TID 0000.0001)                 2.500000000000000E+03,      /* I = 13 */
(PID.TID 0000.0001)                 2.700000000000000E+03,      /* I = 14 */
(PID.TID 0000.0001)                 2.900000000000000E+03,      /* I = 15 */
(PID.TID 0000.0001)                 3.100000000000000E+03,      /* I = 16 */
(PID.TID 0000.0001)                 3.300000000000000E+03,      /* I = 17 */
(PID.TID 0000.0001)                 3.500000000000000E+03,      /* I = 18 */
(PID.TID 0000.0001)                 3.700000000000000E+03,      /* I = 19 */
(PID.TID 0000.0001)                 3.900000000000000E+03       /* I = 20 */
(PID.TID 0000.0001)     ;
(PID.TID 0000.0001) yC =  /* yC(1,:,1,:) : P-point Y coord ( deg. or m if cartesian) */
(PID.TID 0000.0001)                 1.000000000000000E+02,      /* J =  1 */
(PID.TID 0000.0001)                 3.000000000000000E+02,      /* J =  2 */
(PID.TID 0000.0001)                 5.000000000000000E+02,      /* J =  3 */
(PID.TID 0000.0001)                 7.000000000000000E+02,      /* J =  4 */
(PID.TID 0000.0001)                 9.000000000000000E+02,      /* J =  5 */
(PID.TID 0000.0001)                 1.100000000000000E+03,      /* J =  6 */
(PID.TID 0000.0001)                 1.300000000000000E+03,      /* J =  7 */
(PID.TID 0000.0001)                 1.500000000000000E+03,      /* J =  8 */
(PID.TID 0000.0001)                 1.700000000000000E+03,      /* J =  9 */
(PID.TID 0000.0001)                 1.900000000000000E+03,      /* J = 10 */
(PID.TID 0000.0001)                 2.100000000000000E+03       /* J = 11 */
(PID.TID 0000.0001)     ;
(PID.TID 0000.0001) rcoord = /* P-point R coordinate (  units of r ) */
(PID.TID 0000.0001)                -5.000000000000000E+00,      /* K =  1 */
(PID.TID 0000.0001)                -1.500000000000000E+01,      /* K =  2 */
(PID.TID 0000.0001)                -2.500000000000000E+01,      /* K =  3 */
(PID.TID 0000.0001)                -3.500000000000000E+01,      /* K =  4 */
(PID.TID 0000.0001)                -4.500000000000000E+01,      /* K =  5 */
(PID.TID 0000.0001)                -5.500000000000000E+01,      /* K =  6 */
(PID.TID 0000.0001)                -6.500000000000000E+01,      /* K =  7 */
(PID.TID 0000.0001)                -7.500000000000000E+01,      /* K =  8 */
(PID.TID 0000.0001)                -8.500000000000000E+01,      /* K =  9 */
(PID.TID 0000.0001)                -9.500000000000000E+01,      /* K = 10 */
(PID.TID 0000.0001)                -1.050000000000000E+02,      /* K = 11 */
(PID.TID 0000.0001)                -1.150000000000000E+02,      /* K = 12 */
(PID.TID 0000.0001)                -1.250000000000000E+02,      /* K = 13 */
(PID.TID 0000.0001)                -1.350000000000000E+02,      /* K = 14 */
(PID.TID 0000.0001)                -1.450000000000000E+02       /* K = 15 */
(PID.TID 0000.0001)     ;
(PID.TID 0000.0001) rF =   /* W-Interf. R coordinate (  units of r ) */
(PID.TID 0000.0001)                 0.000000000000000E+00,      /* K =  1 */
(PID.TID 0000.0001)                -1.000000000000000E+01,      /* K =  2 */
(PID.TID 0000.0001)                -2.000000000000000E+01,      /* K =  3 */
(PID.TID 0000.0001)                -3.000000000000000E+01,      /* K =  4 */
(PID.TID 0000.0001)                -4.000000000000000E+01,      /* K =  5 */
(PID.TID 0000.0001)                -5.000000000000000E+01,      /* K =  6 */
(PID.TID 0000.0001)                -6.000000000000000E+01,      /* K =  7 */
(PID.TID 0000.0001)                -7.000000000000000E+01,      /* K =  8 */
(PID.TID 0000.0001)                -8.000000000000000E+01,      /* K =  9 */
(PID.TID 0000.0001)                -9.000000000000000E+01,      /* K = 10 */
(PID.TID 0000.0001)                -1.000000000000000E+02,      /* K = 11 */
(PID.TID 0000.0001)                -1.100000000000000E+02,      /* K = 12 */
(PID.TID 0000.0001)                -1.200000000000000E+02,      /* K = 13 */
(PID.TID 0000.0001)                -1.300000000000000E+02,      /* K = 14 */
(PID.TID 0000.0001)                -1.400000000000000E+02,      /* K = 15 */
(PID.TID 0000.0001)                -1.500000000000000E+02       /* K = 16 */
(PID.TID 0000.0001)     ;
(PID.TID 0000.0001) deepFacC = /* deep-model grid factor @ cell-Center (-) */
(PID.TID 0000.0001)    15 @  1.000000000000000E+00              /* K =  1: 15 */
(PID.TID 0000.0001)     ;
(PID.TID 0000.0001) deepFacF = /* deep-model grid factor @ W-Interface (-) */
(PID.TID 0000.0001)    16 @  1.000000000000000E+00              /* K =  1: 16 */
(PID.TID 0000.0001)     ;
(PID.TID 0000.0001) rVel2wUnit = /* convert units: rVel -> wSpeed (=1 if z-coord)*/
(PID.TID 0000.0001)    16 @  1.000000000000000E+00              /* K =  1: 16 */
(PID.TID 0000.0001)     ;
(PID.TID 0000.0001) wUnit2rVel = /* convert units: wSpeed -> rVel (=1 if z-coord)*/
(PID.TID 0000.0001)    16 @  1.000000000000000E+00              /* K =  1: 16 */
(PID.TID 0000.0001)     ;
(PID.TID 0000.0001) dBdrRef = /* Vertical grad. of reference buoyancy [(m/s/r)^2] */
(PID.TID 0000.0001)    15 @  0.000000000000000E+00              /* K =  1: 15 */
(PID.TID 0000.0001)     ;
(PID.TID 0000.0001) rotateGrid = /* use rotated grid ( True/False ) */
(PID.TID 0000.0001)                   F
(PID.TID 0000.0001)     ;
(PID.TID 0000.0001) phiEuler = /* Euler angle, rotation about original z-coordinate [rad] */
(PID.TID 0000.0001)                 0.000000000000000E+00
(PID.TID 0000.0001)     ;
(PID.TID 0000.0001) thetaEuler = /* Euler angle, rotation about new x-coordinate [rad] */
(PID.TID 0000.0001)                 0.000000000000000E+00
(PID.TID 0000.0001)     ;
(PID.TID 0000.0001) psiEuler = /* Euler angle, rotation about new z-coordinate [rad] */
(PID.TID 0000.0001)                 0.000000000000000E+00
(PID.TID 0000.0001)     ;
(PID.TID 0000.0001) dxF =  /* dxF(:,1,:,1) ( units: m ) */
(PID.TID 0000.0001)    20 @  2.000000000000000E+02              /* I =  1: 20 */
(PID.TID 0000.0001)     ;
(PID.TID 0000.0001) dxF =  /* dxF(1,:,1,:) ( units: m ) */
(PID.TID 0000.0001)    11 @  2.000000000000000E+02              /* J =  1: 11 */
(PID.TID 0000.0001)     ;
(PID.TID 0000.0001) dyF =  /* dyF(:,1,:,1) ( units: m ) */
(PID.TID 0000.0001)    20 @  2.000000000000000E+02              /* I =  1: 20 */
(PID.TID 0000.0001)     ;
(PID.TID 0000.0001) dyF =  /* dyF(1,:,1,:) ( units: m ) */
(PID.TID 0000.0001)    11 @  2.000000000000000E+02              /* J =  1: 11 */
(PID.TID 0000.0001)     ;
(PID.TID 0000.0001) dxG =  /* dxG(:,1,:,1) ( units: m ) */
(PID.TID 0000.0001)    20 @  2.000000000000000E+02              /* I =  1: 20 */
(PID.TID 0000.0001)     ;
(PID.TID 0000.0001) dxG =  /* dxG(1,:,1,:) ( units: m ) */
(PID.TID 0000.0001)    11 @  2.000000000000000E+02              /* J =  1: 11 */
(PID.TID 0000.0001)     ;
(PID.TID 0000.0001) dyG =  /* dyG(:,1,:,1) ( units: m ) */
(PID.TID 0000.0001)    20 @  2.000000000000000E+02              /* I =  1: 20 */
(PID.TID 0000.0001)     ;
(PID.TID 0000.0001) dyG =  /* dyG(1,:,1,:) ( units: m ) */
(PID.TID 0000.0001)    11 @  2.000000000000000E+02              /* J =  1: 11 */
(PID.TID 0000.0001)     ;
(PID.TID 0000.0001) dxC =  /* dxC(:,1,:,1) ( units: m ) */
(PID.TID 0000.0001)    20 @  2.000000000000000E+02              /* I =  1: 20 */
(PID.TID 0000.0001)     ;
(PID.TID 0000.0001) dxC =  /* dxC(1,:,1,:) ( units: m ) */
(PID.TID 0000.0001)    11 @  2.000000000000000E+02              /* J =  1: 11 */
(PID.TID 0000.0001)     ;
(PID.TID 0000.0001) dyC =  /* dyC(:,1,:,1) ( units: m ) */
(PID.TID 0000.0001)    20 @  2.000000000000000E+02              /* I =  1: 20 */
(PID.TID 0000.0001)     ;
(PID.TID 0000.0001) dyC =  /* dyC(1,:,1,:) ( units: m ) */
(PID.TID 0000.0001)    11 @  2.000000000000000E+02              /* J =  1: 11 */
(PID.TID 0000.0001)     ;
(PID.TID 0000.0001) dxV =  /* dxV(:,1,:,1) ( units: m ) */
(PID.TID 0000.0001)    20 @  2.000000000000000E+02              /* I =  1: 20 */
(PID.TID 0000.0001)     ;
(PID.TID 0000.0001) dxV =  /* dxV(1,:,1,:) ( units: m ) */
(PID.TID 0000.0001)    11 @  2.000000000000000E+02              /* J =  1: 11 */
(PID.TID 0000.0001)     ;
(PID.TID 0000.0001) dyU =  /* dyU(:,1,:,1) ( units: m ) */
(PID.TID 0000.0001)    20 @  2.000000000000000E+02              /* I =  1: 20 */
(PID.TID 0000.0001)     ;
(PID.TID 0000.0001) dyU =  /* dyU(1,:,1,:) ( units: m ) */
(PID.TID 0000.0001)    11 @  2.000000000000000E+02              /* J =  1: 11 */
(PID.TID 0000.0001)     ;
(PID.TID 0000.0001) rA  =  /* rA (:,1,:,1) ( units: m^2 ) */
(PID.TID 0000.0001)    20 @  4.000000000000000E+04              /* I =  1: 20 */
(PID.TID 0000.0001)     ;
(PID.TID 0000.0001) rA  =  /* rA (1,:,1,:) ( units: m^2 ) */
(PID.TID 0000.0001)    11 @  4.000000000000000E+04              /* J =  1: 11 */
(PID.TID 0000.0001)     ;
(PID.TID 0000.0001) rAw =  /* rAw(:,1,:,1) ( units: m^2 ) */
(PID.TID 0000.0001)    20 @  4.000000000000000E+04              /* I =  1: 20 */
(PID.TID 0000.0001)     ;
(PID.TID 0000.0001) rAw =  /* rAw(1,:,1,:) ( units: m^2 ) */
(PID.TID 0000.0001)    11 @  4.000000000000000E+04              /* J =  1: 11 */
(PID.TID 0000.0001)     ;
(PID.TID 0000.0001) rAs =  /* rAs(:,1,:,1) ( units: m^2 ) */
(PID.TID 0000.0001)    20 @  4.000000000000000E+04              /* I =  1: 20 */
(PID.TID 0000.0001)     ;
(PID.TID 0000.0001) rAs =  /* rAs(1,:,1,:) ( units: m^2 ) */
(PID.TID 0000.0001)    11 @  4.000000000000000E+04              /* J =  1: 11 */
(PID.TID 0000.0001)     ;
(PID.TID 0000.0001) globalArea = /* Integrated horizontal Area (m^2) */
(PID.TID 0000.0001)                 6.480000000000000E+06
(PID.TID 0000.0001)     ;
(PID.TID 0000.0001) // =======================================================
(PID.TID 0000.0001) // End of Model config. summary
(PID.TID 0000.0001) // =======================================================
(PID.TID 0000.0001) 
(PID.TID 0000.0001) == Packages configuration : Check & print summary ==
(PID.TID 0000.0001) 
(PID.TID 0000.0001) ICEPLUME_CHECK: #define ALLOW_ICEPLUME
(PID.TID 0000.0001) GAD_CHECK: #define ALLOW_GENERIC_ADVDIFF
(PID.TID 0000.0001) // =======================================================
(PID.TID 0000.0001) // Check Model config. (CONFIG_CHECK):
(PID.TID 0000.0001) // CONFIG_CHECK : Normal End
(PID.TID 0000.0001) // =======================================================
(PID.TID 0000.0001) 
(PID.TID 0000.0001) Start initial hydrostatic pressure computation
(PID.TID 0000.0001) Pressure is predetermined for buoyancyRelation OCEANIC
(PID.TID 0000.0001) 
(PID.TID 0000.0001) // =======================================================
(PID.TID 0000.0001) // Model current state
(PID.TID 0000.0001) // =======================================================
(PID.TID 0000.0001) 
(PID.TID 0000.0001) // =======================================================
(PID.TID 0000.0001) // Begin MONITOR dynamic field statistics
(PID.TID 0000.0001) // =======================================================
(PID.TID 0000.0001) %MON time_tsnumber                =                     0
(PID.TID 0000.0001) %MON time_secondsf                =   0.0000000000000E+00
(PID.TID 0000.0001) %MON dynstat_eta_max              =   0.0000000000000E+00
(PID.TID 0000.0001) %MON dynstat_eta_min              =   0.0000000000000E+00
(PID.TID 0000.0001) %MON dynstat_eta_mean             =   0.0000000000000E+00
(PID.TID 0000.0001) %MON dynstat_eta_sd               =   0.0000000000000E+00
(PID.TID 0000.0001) %MON dynstat_eta_del2             =   0.0000000000000E+00
(PID.TID 0000.0001) %MON dynstat_uvel_max             =   0.0000000000000E+00
(PID.TID 0000.0001) %MON dynstat_uvel_min             =   0.0000000000000E+00
(PID.TID 0000.0001) %MON dynstat_uvel_mean            =   0.0000000000000E+00
(PID.TID 0000.0001) %MON dynstat_uvel_sd              =   0.0000000000000E+00
(PID.TID 0000.0001) %MON dynstat_uvel_del2            =   0.0000000000000E+00
(PID.TID 0000.0001) %MON dynstat_vvel_max             =   0.0000000000000E+00
(PID.TID 0000.0001) %MON dynstat_vvel_min             =   0.0000000000000E+00
(PID.TID 0000.0001) %MON dynstat_vvel_mean            =   0.0000000000000E+00
(PID.TID 0000.0001) %MON dynstat_vvel_sd              =   0.0000000000000E+00
(PID.TID 0000.0001) %MON dynstat_vvel_del2            =   0.0000000000000E+00
(PID.TID 0000.0001) %MON dynstat_wvel_max             =   0.0000000000000E+00
(PID.TID 0000.0001) %MON dynstat_wvel_min             =   0.0000000000000E+00
(PID.TID 0000.0001) %MON dynstat_wvel_mean            =   0.0000000000000E+00
(PID.TID 0000.0001) %MON dynstat_wvel_sd              =   0.0000000000000E+00
(PID.TID 0000.0001) %MON dynstat_wvel_del2            =   0.0000000000000E+00
(PID.TID 0000.0001) %MON dynstat_theta_max            =   1.7000000000000E+00
(PID.TID 0000.0001) %MON dynstat_theta_min            =   5.5357142857143E-02
(PID.TID 0000.0001) %MON dynstat_theta_mean           =   9.7577160493828E-01
(PID.TID 0000.0001) %MON dynstat_theta_sd             =   5.8662976507596E-01
(PID.TID 0000.0001) %MON dynstat_theta_del2           =   0.0000000000000E+00
(PID.TID 0000.0001) %MON dynstat_salt_max             =   3.4483333333333E+01
(PID.TID 0000.0001) %MON dynstat_salt_min             =   3.2397222222222E+01
(PID.TID 0000.0001) %MON dynstat_salt_mean            =   3.4032222222222E+01
(PID.TID 0000.0001) %MON dynstat_salt_sd              =   5.6576818319614E-01
(PID.TID 0000.0001) %MON dynstat_salt_del2            =   0.0000000000000E+00
(PID.TID 0000.0001) %MON advcfl_uvel_max              =   0.0000000000000E+00
(PID.TID 0000.0001) %MON advcfl_vvel_max              =   0.0000000000000E+00
(PID.TID 0000.0001) %MON advcfl_wvel_max              =   0.0000000000000E+00
(PID.TID 0000.0001) %MON advcfl_W_hf_max              =   0.0000000000000E+00
(PID.TID 0000.0001) %MON pe_b_mean                    =   0.0000000000000E+00
(PID.TID 0000.0001) %MON ke_max                       =   0.0000000000000E+00
(PID.TID 0000.0001) %MON ke_mean                      =   0.0000000000000E+00
(PID.TID 0000.0001) %MON ke_vol                       =   9.7200000000000E+08
(PID.TID 0000.0001) // =======================================================
(PID.TID 0000.0001) // End MONITOR dynamic field statistics
(PID.TID 0000.0001) // =======================================================
(PID.TID 0000.0001) SOLVE_FOR_PRESSURE: putPmEinXvector =    F
(PID.TID 0000.0001) SOLVE_FOR_PRESSURE: zeroPsNH=    F , zeroMeanPnh=    F
(PID.TID 0000.0001) SOLVE_FOR_PRESSURE: oldFreeSurfTerm =    F
 cg2d: Sum(rhs),rhsMax =  -1.01292850915951E+00  2.13650610342605E-03
(PID.TID 0000.0001)      cg2d_init_res =   1.00001044659225E+00
(PID.TID 0000.0001)      cg2d_iters(min,last) =      -1      31
(PID.TID 0000.0001)      cg2d_last_res =   8.70616681244161E-08
(PID.TID 0000.0001) // =======================================================
(PID.TID 0000.0001) // Begin MONITOR dynamic field statistics
(PID.TID 0000.0001) // =======================================================
(PID.TID 0000.0001) %MON time_tsnumber                =                     1
(PID.TID 0000.0001) %MON time_secondsf                =   2.5000000000000E+01
(PID.TID 0000.0001) %MON dynstat_eta_max              =   1.9652625416026E-04
(PID.TID 0000.0001) %MON dynstat_eta_min              =   5.5768566371472E-06
(PID.TID 0000.0001) %MON dynstat_eta_mean             =   3.1309721385323E-05
(PID.TID 0000.0001) %MON dynstat_eta_sd               =   3.1153345423773E-05
(PID.TID 0000.0001) %MON dynstat_eta_del2             =   9.6405539351203E-07
(PID.TID 0000.0001) %MON dynstat_uvel_max             =   9.3776335381203E-05
(PID.TID 0000.0001) %MON dynstat_uvel_min             =   2.9717510614951E-07
(PID.TID 0000.0001) %MON dynstat_uvel_mean            =   7.2470775759218E-06
(PID.TID 0000.0001) %MON dynstat_uvel_sd              =   1.0039851220494E-05
(PID.TID 0000.0001) %MON dynstat_uvel_del2            =   2.3970542421610E-07
(PID.TID 0000.0001) %MON dynstat_vvel_max             =   8.1402763662586E-05
(PID.TID 0000.0001) %MON dynstat_vvel_min             =  -8.1402763662586E-05
(PID.TID 0000.0001) %MON dynstat_vvel_mean            =   4.8678473690357E-22
(PID.TID 0000.0001) %MON dynstat_vvel_sd              =   1.1970558376311E-05
(PID.TID 0000.0001) %MON dynstat_vvel_del2            =   5.4538947252115E-07
(PID.TID 0000.0001) %MON dynstat_wvel_max             =   2.6679683750506E-05
(PID.TID 0000.0001) %MON dynstat_wvel_min             =  -7.9434095454029E-03
(PID.TID 0000.0001) %MON dynstat_wvel_mean            =  -1.8138438815251E-05
(PID.TID 0000.0001) %MON dynstat_wvel_sd              =   3.0791770664777E-04
(PID.TID 0000.0001) %MON dynstat_wvel_del2            =   1.6276953879281E-05
(PID.TID 0000.0001) %MON dynstat_theta_max            =   1.6999996851854E+00
(PID.TID 0000.0001) %MON dynstat_theta_min            =   5.5354700307195E-02
(PID.TID 0000.0001) %MON dynstat_theta_mean           =   9.7577065053755E-01
(PID.TID 0000.0001) %MON dynstat_theta_sd             =   5.8662219174523E-01
(PID.TID 0000.0001) %MON dynstat_theta_del2           =   2.0210165732881E-05
(PID.TID 0000.0001) %MON dynstat_salt_max             =   3.4483333250000E+01
(PID.TID 0000.0001) %MON dynstat_salt_min             =   3.2397222837341E+01
(PID.TID 0000.0001) %MON dynstat_salt_mean            =   3.4032215615846E+01
(PID.TID 0000.0001) %MON dynstat_salt_sd              =   5.6576997241089E-01
(PID.TID 0000.0001) %MON dynstat_salt_del2            =   9.6217065611293E-06
(PID.TID 0000.0001) %MON advcfl_uvel_max              =   1.1722041922650E-05
(PID.TID 0000.0001) %MON advcfl_vvel_max              =   1.0175345457823E-05
(PID.TID 0000.0001) %MON advcfl_wvel_max              =   1.9858523863507E-02
(PID.TID 0000.0001) %MON advcfl_W_hf_max              =   1.9858523863507E-02
(PID.TID 0000.0001) %MON pe_b_mean                    =   6.3792127407246E-11
(PID.TID 0000.0001) %MON ke_max                       =   5.5117052353354E-09
(PID.TID 0000.0001) %MON ke_mean                      =   1.3608686016970E-10
(PID.TID 0000.0001) %MON ke_vol                       =   9.7200000000000E+08
(PID.TID 0000.0001) // =======================================================
(PID.TID 0000.0001) // End MONITOR dynamic field statistics
(PID.TID 0000.0001) // =======================================================
 cg2d: Sum(rhs),rhsMax =  -1.49542295549383E+00  2.89433535150329E-03
(PID.TID 0000.0001)      cg2d_init_res =   5.64020437920596E-01
(PID.TID 0000.0001)      cg2d_iters(min,last) =      -1      31
(PID.TID 0000.0001)      cg2d_last_res =   3.77037822126281E-08
(PID.TID 0000.0001) // =======================================================
(PID.TID 0000.0001) // Begin MONITOR dynamic field statistics
(PID.TID 0000.0001) // =======================================================
(PID.TID 0000.0001) %MON time_tsnumber                =                     2
(PID.TID 0000.0001) %MON time_secondsf                =   5.0000000000000E+01
(PID.TID 0000.0001) %MON dynstat_eta_max              =   2.1389208621534E-04
(PID.TID 0000.0001) %MON dynstat_eta_min              =   2.6248799310880E-05
(PID.TID 0000.0001) %MON dynstat_eta_mean             =   6.2619437580083E-05
(PID.TID 0000.0001) %MON dynstat_eta_sd               =   3.2663703836377E-05
(PID.TID 0000.0001) %MON dynstat_eta_del2             =   1.5142589069637E-06
(PID.TID 0000.0001) %MON dynstat_uvel_max             =   2.1332707746236E-04
(PID.TID 0000.0001) %MON dynstat_uvel_min             =   1.1015946946646E-06
(PID.TID 0000.0001) %MON dynstat_uvel_mean            =   1.3719314221213E-05
(PID.TID 0000.0001) %MON dynstat_uvel_sd              =   1.2398912002049E-05
(PID.TID 0000.0001) %MON dynstat_uvel_del2            =   3.3483227563673E-07
(PID.TID 0000.0001) %MON dynstat_vvel_max             =   1.9689847228788E-04
(PID.TID 0000.0001) %MON dynstat_vvel_min             =  -1.9689847228788E-04
(PID.TID 0000.0001) %MON dynstat_vvel_mean            =  -1.0037738283739E-21
(PID.TID 0000.0001) %MON dynstat_vvel_sd              =   1.4108105746354E-05
(PID.TID 0000.0001) %MON dynstat_vvel_del2            =   7.0356203260085E-07
(PID.TID 0000.0001) %MON dynstat_wvel_max             =   6.0741713408958E-05
(PID.TID 0000.0001) %MON dynstat_wvel_min             =  -7.8983235529484E-03
(PID.TID 0000.0001) %MON dynstat_wvel_mean            =  -1.8138550290480E-05
(PID.TID 0000.0001) %MON dynstat_wvel_sd              =   3.0564380309681E-04
(PID.TID 0000.0001) %MON dynstat_wvel_del2            =   1.6099982931509E-05
(PID.TID 0000.0001) %MON dynstat_theta_max            =   1.6999993703689E+00
(PID.TID 0000.0001) %MON dynstat_theta_min            =   5.5352292719474E-02
(PID.TID 0000.0001) %MON dynstat_theta_mean           =   9.7576970521667E-01
(PID.TID 0000.0001) %MON dynstat_theta_sd             =   5.8661481683588E-01
(PID.TID 0000.0001) %MON dynstat_theta_del2           =   3.8942025931527E-05
(PID.TID 0000.0001) %MON dynstat_salt_max             =   3.4483333166667E+01
(PID.TID 0000.0001) %MON dynstat_salt_min             =   3.2397223470158E+01
(PID.TID 0000.0001) %MON dynstat_salt_mean            =   3.4032209005490E+01
(PID.TID 0000.0001) %MON dynstat_salt_sd              =   5.6577176877541E-01
(PID.TID 0000.0001) %MON dynstat_salt_del2            =   1.8575463186469E-05
(PID.TID 0000.0001) %MON advcfl_uvel_max              =   2.6665884682795E-05
(PID.TID 0000.0001) %MON advcfl_vvel_max              =   2.4612309035985E-05
(PID.TID 0000.0001) %MON advcfl_wvel_max              =   1.9745808882371E-02
(PID.TID 0000.0001) %MON advcfl_W_hf_max              =   1.9745783011939E-02
(PID.TID 0000.0001) %MON pe_b_mean                    =   1.6311121236837E-10
(PID.TID 0000.0001) %MON ke_max                       =   3.0761607499783E-08
(PID.TID 0000.0001) %MON ke_mean                      =   2.4993923736026E-10
(PID.TID 0000.0001) %MON ke_vol                       =   9.7200020288699E+08
(PID.TID 0000.0001) // =======================================================
(PID.TID 0000.0001) // End MONITOR dynamic field statistics
(PID.TID 0000.0001) // =======================================================
 cg2d: Sum(rhs),rhsMax =  -1.20787627323664E+00  5.37503956907671E-03
(PID.TID 0000.0001)      cg2d_init_res =   5.43311974642785E-01
(PID.TID 0000.0001)      cg2d_iters(min,last) =      -1      30
(PID.TID 0000.0001)      cg2d_last_res =   3.17870240075652E-08
(PID.TID 0000.0001) // =======================================================
(PID.TID 0000.0001) // Begin MONITOR dynamic field statistics
(PID.TID 0000.0001) // =======================================================
(PID.TID 0000.0001) %MON time_tsnumber                =                     3
(PID.TID 0000.0001) %MON time_secondsf                =   7.5000000000000E+01
(PID.TID 0000.0001) %MON dynstat_eta_max              =   2.9843805806564E-04
(PID.TID 0000.0001) %MON dynstat_eta_min              =   6.4802619485725E-05
(PID.TID 0000.0001) %MON dynstat_eta_mean             =   9.3929148773088E-05
(PID.TID 0000.0001) %MON dynstat_eta_sd               =   2.5806864740777E-05
(PID.TID 0000.0001) %MON dynstat_eta_del2             =   2.9064383468607E-06
(PID.TID 0000.0001) %MON dynstat_uvel_max             =   4.3311707318211E-04
(PID.TID 0000.0001) %MON dynstat_uvel_min             =  -3.8052058510621E-06
(PID.TID 0000.0001) %MON dynstat_uvel_mean            =   1.7707128869949E-05
(PID.TID 0000.0001) %MON dynstat_uvel_sd              =   1.6929823518956E-05
(PID.TID 0000.0001) %MON dynstat_uvel_del2            =   7.2100980543750E-07
(PID.TID 0000.0001) %MON dynstat_vvel_max             =   4.1591399542249E-04
(PID.TID 0000.0001) %MON dynstat_vvel_min             =  -4.1591399542249E-04
(PID.TID 0000.0001) %MON dynstat_vvel_mean            =  -2.2208863925209E-21
(PID.TID 0000.0001) %MON dynstat_vvel_sd              =   2.1891965748508E-05
(PID.TID 0000.0001) %MON dynstat_vvel_del2            =   1.3970332097591E-06
(PID.TID 0000.0001) %MON dynstat_wvel_max             =   1.2676419733751E-04
(PID.TID 0000.0001) %MON dynstat_wvel_min             =  -7.8100860303239E-03
(PID.TID 0000.0001) %MON dynstat_wvel_mean            =  -1.8138355943235E-05
(PID.TID 0000.0001) %MON dynstat_wvel_sd              =   3.0123459224501E-04
(PID.TID 0000.0001) %MON dynstat_wvel_del2            =   1.5758768344637E-05
(PID.TID 0000.0001) %MON dynstat_theta_max            =   1.6999990555480E+00
(PID.TID 0000.0001) %MON dynstat_theta_min            =   5.5349919591251E-02
(PID.TID 0000.0001) %MON dynstat_theta_mean           =   9.7576876816650E-01
(PID.TID 0000.0001) %MON dynstat_theta_sd             =   5.8660760770928E-01
(PID.TID 0000.0001) %MON dynstat_theta_del2           =   5.6282495654473E-05
(PID.TID 0000.0001) %MON dynstat_salt_max             =   3.4483333083334E+01
(PID.TID 0000.0001) %MON dynstat_salt_min             =   3.2397224106249E+01
(PID.TID 0000.0001) %MON dynstat_salt_mean            =   3.4032202392973E+01
(PID.TID 0000.0001) %MON dynstat_salt_sd              =   5.6577355916046E-01
(PID.TID 0000.0001) %MON dynstat_salt_del2            =   2.6824721988086E-05
(PID.TID 0000.0001) %MON advcfl_uvel_max              =   5.4139634147764E-05
(PID.TID 0000.0001) %MON advcfl_vvel_max              =   5.1989249427812E-05
(PID.TID 0000.0001) %MON advcfl_wvel_max              =   1.9525215075810E-02
(PID.TID 0000.0001) %MON advcfl_W_hf_max              =   1.9525187233923E-02
(PID.TID 0000.0001) %MON pe_b_mean                    =   3.1027968217317E-10
(PID.TID 0000.0001) %MON ke_max                       =   1.3338978318835E-07
(PID.TID 0000.0001) %MON ke_mean                      =   4.9641314763753E-10
(PID.TID 0000.0001) %MON ke_vol                       =   9.7200040577396E+08
(PID.TID 0000.0001) // =======================================================
(PID.TID 0000.0001) // End MONITOR dynamic field statistics
(PID.TID 0000.0001) // =======================================================
 cg2d: Sum(rhs),rhsMax =  -1.11064803264468E+00  7.79410705771390E-03
(PID.TID 0000.0001)      cg2d_init_res =   3.49542597266907E-01
(PID.TID 0000.0001)      cg2d_iters(min,last) =      -1      29
(PID.TID 0000.0001)      cg2d_last_res =   9.99645605720551E-08
(PID.TID 0000.0001) // =======================================================
(PID.TID 0000.0001) // Begin MONITOR dynamic field statistics
(PID.TID 0000.0001) // =======================================================
(PID.TID 0000.0001) %MON time_tsnumber                =                     4
(PID.TID 0000.0001) %MON time_secondsf                =   1.0000000000000E+02
(PID.TID 0000.0001) %MON dynstat_eta_max              =   3.9275488735159E-04
(PID.TID 0000.0001) %MON dynstat_eta_min              =   1.1321779200970E-04
(PID.TID 0000.0001) %MON dynstat_eta_mean             =   1.2523885517755E-04
(PID.TID 0000.0001) %MON dynstat_eta_sd               =   2.2022072601881E-05
(PID.TID 0000.0001) %MON dynstat_eta_del2             =   4.2041930672196E-06
(PID.TID 0000.0001) %MON dynstat_uvel_max             =   7.5265492819564E-04
(PID.TID 0000.0001) %MON dynstat_uvel_min             =  -1.0267406152256E-04
(PID.TID 0000.0001) %MON dynstat_uvel_mean            =   1.8862210684428E-05
(PID.TID 0000.0001) %MON dynstat_uvel_sd              =   2.6751455169549E-05
(PID.TID 0000.0001) %MON dynstat_uvel_del2            =   1.3436014360109E-06
(PID.TID 0000.0001) %MON dynstat_vvel_max             =   7.3538511275561E-04
(PID.TID 0000.0001) %MON dynstat_vvel_min             =  -7.3538511275561E-04
(PID.TID 0000.0001) %MON dynstat_vvel_mean            =   3.3572344398761E-21
(PID.TID 0000.0001) %MON dynstat_vvel_sd              =   3.7493097669025E-05
(PID.TID 0000.0001) %MON dynstat_vvel_del2            =   2.5698940232596E-06
(PID.TID 0000.0001) %MON dynstat_wvel_max             =   2.2236764171064E-04
(PID.TID 0000.0001) %MON dynstat_wvel_min             =  -7.6822389800057E-03
(PID.TID 0000.0001) %MON dynstat_wvel_mean            =  -1.8138050100215E-05
(PID.TID 0000.0001) %MON dynstat_wvel_sd              =   2.9488731412237E-04
(PID.TID 0000.0001) %MON dynstat_wvel_del2            =   1.5269791672556E-05
(PID.TID 0000.0001) %MON dynstat_theta_max            =   1.6999987407215E+00
(PID.TID 0000.0001) %MON dynstat_theta_min            =   5.5347580460207E-02
(PID.TID 0000.0001) %MON dynstat_theta_mean           =   9.7576784104527E-01
(PID.TID 0000.0001) %MON dynstat_theta_sd             =   5.8660053329058E-01
(PID.TID 0000.0001) %MON dynstat_theta_del2           =   7.2319860347732E-05
(PID.TID 0000.0001) %MON dynstat_salt_max             =   3.4483333000001E+01
(PID.TID 0000.0001) %MON dynstat_salt_min             =   3.2397224761485E+01
(PID.TID 0000.0001) %MON dynstat_salt_mean            =   3.4032195780193E+01
(PID.TID 0000.0001) %MON dynstat_salt_sd              =   5.6577533175923E-01
(PID.TID 0000.0001) %MON dynstat_salt_del2            =   3.4343307221583E-05
(PID.TID 0000.0001) %MON advcfl_uvel_max              =   9.4081866024455E-05
(PID.TID 0000.0001) %MON advcfl_vvel_max              =   9.1923139094451E-05
(PID.TID 0000.0001) %MON advcfl_wvel_max              =   1.9205597450014E-02
(PID.TID 0000.0001) %MON advcfl_W_hf_max              =   1.9205559238882E-02
(PID.TID 0000.0001) %MON pe_b_mean                    =   5.2875024956077E-10
(PID.TID 0000.0001) %MON ke_max                       =   4.1201774736513E-07
(PID.TID 0000.0001) %MON ke_mean                      =   1.1307198553689E-09
(PID.TID 0000.0001) %MON ke_vol                       =   9.7200060866088E+08
(PID.TID 0000.0001) // =======================================================
(PID.TID 0000.0001) // End MONITOR dynamic field statistics
(PID.TID 0000.0001) // =======================================================
 cg2d: Sum(rhs),rhsMax =  -1.08485679234812E+00  9.97425313198467E-03
(PID.TID 0000.0001)      cg2d_init_res =   2.42795927486027E-01
(PID.TID 0000.0001)      cg2d_iters(min,last) =      -1      29
(PID.TID 0000.0001)      cg2d_last_res =   8.14090212321631E-08
(PID.TID 0000.0001) // =======================================================
(PID.TID 0000.0001) // Begin MONITOR dynamic field statistics
(PID.TID 0000.0001) // =======================================================
(PID.TID 0000.0001) %MON time_tsnumber                =                     5
(PID.TID 0000.0001) %MON time_secondsf                =   1.2500000000000E+02
(PID.TID 0000.0001) %MON dynstat_eta_max              =   4.8792475367643E-04
(PID.TID 0000.0001) %MON dynstat_eta_min              =   1.4661129153621E-04
(PID.TID 0000.0001) %MON dynstat_eta_mean             =   1.5654855698543E-04
(PID.TID 0000.0001) %MON dynstat_eta_sd               =   2.6525006888818E-05
(PID.TID 0000.0001) %MON dynstat_eta_del2             =   5.3597391322463E-06
(PID.TID 0000.0001) %MON dynstat_uvel_max             =   1.1633050303929E-03
(PID.TID 0000.0001) %MON dynstat_uvel_min             =  -2.2989153613330E-04
(PID.TID 0000.0001) %MON dynstat_uvel_mean            =   1.7889311993659E-05
(PID.TID 0000.0001) %MON dynstat_uvel_sd              =   4.1120372299807E-05
(PID.TID 0000.0001) %MON dynstat_uvel_del2            =   2.1497523105304E-06
(PID.TID 0000.0001) %MON dynstat_vvel_max             =   1.1460875809620E-03
(PID.TID 0000.0001) %MON dynstat_vvel_min             =  -1.1460875809620E-03
(PID.TID 0000.0001) %MON dynstat_vvel_mean            =   5.7343639921725E-21
(PID.TID 0000.0001) %MON dynstat_vvel_sd              =   5.9040843246083E-05
(PID.TID 0000.0001) %MON dynstat_vvel_del2            =   4.1136942190068E-06
(PID.TID 0000.0001) %MON dynstat_wvel_max             =   3.4497571589311E-04
(PID.TID 0000.0001) %MON dynstat_wvel_min             =  -7.5180948904696E-03
(PID.TID 0000.0001) %MON dynstat_wvel_mean            =  -1.8137978066853E-05
(PID.TID 0000.0001) %MON dynstat_wvel_sd              =   2.8683213912312E-04
(PID.TID 0000.0001) %MON dynstat_wvel_del2            =   1.4651863245721E-05
(PID.TID 0000.0001) %MON dynstat_theta_max            =   1.6999984258922E+00
(PID.TID 0000.0001) %MON dynstat_theta_min            =   5.5345274881325E-02
(PID.TID 0000.0001) %MON dynstat_theta_mean           =   9.7576692189647E-01
(PID.TID 0000.0001) %MON dynstat_theta_sd             =   5.8659357165768E-01
(PID.TID 0000.0001) %MON dynstat_theta_del2           =   8.7130449654778E-05
(PID.TID 0000.0001) %MON dynstat_salt_max             =   3.4483332916669E+01
(PID.TID 0000.0001) %MON dynstat_salt_min             =   3.2397225444210E+01
(PID.TID 0000.0001) %MON dynstat_salt_mean            =   3.4032189165307E+01
(PID.TID 0000.0001) %MON dynstat_salt_sd              =   5.6577707927080E-01
(PID.TID 0000.0001) %MON dynstat_salt_del2            =   4.1123985780901E-05
(PID.TID 0000.0001) %MON advcfl_uvel_max              =   1.4541312879911E-04
(PID.TID 0000.0001) %MON advcfl_vvel_max              =   1.4326094762025E-04
(PID.TID 0000.0001) %MON advcfl_wvel_max              =   1.8795237226174E-02
(PID.TID 0000.0001) %MON advcfl_W_hf_max              =   1.8795188013494E-02
(PID.TID 0000.0001) %MON pe_b_mean                    =   8.2439988427615E-10
(PID.TID 0000.0001) %MON ke_max                       =   9.9507716049914E-07
(PID.TID 0000.0001) %MON ke_mean                      =   2.4988514219678E-09
(PID.TID 0000.0001) %MON ke_vol                       =   9.7200081154779E+08
(PID.TID 0000.0001) // =======================================================
(PID.TID 0000.0001) // End MONITOR dynamic field statistics
(PID.TID 0000.0001) // =======================================================
 cg2d: Sum(rhs),rhsMax =  -1.08954706415089E+00  1.19175783915691E-02
(PID.TID 0000.0001)      cg2d_init_res =   1.78249967259306E-01
(PID.TID 0000.0001)      cg2d_iters(min,last) =      -1      29
(PID.TID 0000.0001)      cg2d_last_res =   6.05588307858734E-08
(PID.TID 0000.0001) // =======================================================
(PID.TID 0000.0001) // Begin MONITOR dynamic field statistics
(PID.TID 0000.0001) // =======================================================
(PID.TID 0000.0001) %MON time_tsnumber                =                     6
(PID.TID 0000.0001) %MON time_secondsf                =   1.5000000000000E+02
(PID.TID 0000.0001) %MON dynstat_eta_max              =   5.8496446740906E-04
(PID.TID 0000.0001) %MON dynstat_eta_min              =   1.7240476507947E-04
(PID.TID 0000.0001) %MON dynstat_eta_mean             =   1.8785825446068E-04
(PID.TID 0000.0001) %MON dynstat_eta_sd               =   3.2539137752583E-05
(PID.TID 0000.0001) %MON dynstat_eta_del2             =   6.3747466280312E-06
(PID.TID 0000.0001) %MON dynstat_uvel_max             =   1.6564760699250E-03
(PID.TID 0000.0001) %MON dynstat_uvel_min             =  -3.8288098139095E-04
(PID.TID 0000.0001) %MON dynstat_uvel_mean            =   1.6037186837355E-05
(PID.TID 0000.0001) %MON dynstat_uvel_sd              =   5.9097428896478E-05
(PID.TID 0000.0001) %MON dynstat_uvel_del2            =   3.1094911965772E-06
(PID.TID 0000.0001) %MON dynstat_vvel_max             =   1.6391561532003E-03
(PID.TID 0000.0001) %MON dynstat_vvel_min             =  -1.6391561532003E-03
(PID.TID 0000.0001) %MON dynstat_vvel_mean            =  -1.7826863146180E-20
(PID.TID 0000.0001) %MON dynstat_vvel_sd              =   8.5469229903775E-05
(PID.TID 0000.0001) %MON dynstat_vvel_del2            =   5.9717809382271E-06
(PID.TID 0000.0001) %MON dynstat_wvel_max             =   4.9185588973069E-04
(PID.TID 0000.0001) %MON dynstat_wvel_min             =  -7.3208388026021E-03
(PID.TID 0000.0001) %MON dynstat_wvel_mean            =  -1.8137888483845E-05
(PID.TID 0000.0001) %MON dynstat_wvel_sd              =   2.7731470217895E-04
(PID.TID 0000.0001) %MON dynstat_wvel_del2            =   1.3925173530519E-05
(PID.TID 0000.0001) %MON dynstat_theta_max            =   1.6999981110766E+00
(PID.TID 0000.0001) %MON dynstat_theta_min            =   5.5343002412361E-02
(PID.TID 0000.0001) %MON dynstat_theta_mean           =   9.7576601017002E-01
(PID.TID 0000.0001) %MON dynstat_theta_sd             =   5.8658670270040E-01
(PID.TID 0000.0001) %MON dynstat_theta_del2           =   1.0079143933534E-04
(PID.TID 0000.0001) %MON dynstat_salt_max             =   3.4483332833337E+01
(PID.TID 0000.0001) %MON dynstat_salt_min             =   3.2397226168751E+01
(PID.TID 0000.0001) %MON dynstat_salt_mean            =   3.4032182548403E+01
(PID.TID 0000.0001) %MON dynstat_salt_sd              =   5.6577879436626E-01
(PID.TID 0000.0001) %MON dynstat_salt_del2            =   4.7166382639789E-05
(PID.TID 0000.0001) %MON advcfl_uvel_max              =   2.0705950874062E-04
(PID.TID 0000.0001) %MON advcfl_vvel_max              =   2.0489451915004E-04
(PID.TID 0000.0001) %MON advcfl_wvel_max              =   1.8302097006505E-02
(PID.TID 0000.0001) %MON advcfl_W_hf_max              =   1.8302037473058E-02
(PID.TID 0000.0001) %MON pe_b_mean                    =   1.1886280391085E-09
(PID.TID 0000.0001) %MON ke_max                       =   2.0293924450675E-06
(PID.TID 0000.0001) %MON ke_mean                      =   5.0173523571093E-09
(PID.TID 0000.0001) %MON ke_vol                       =   9.7200101443465E+08
(PID.TID 0000.0001) // =======================================================
(PID.TID 0000.0001) // End MONITOR dynamic field statistics
(PID.TID 0000.0001) // =======================================================
 cg2d: Sum(rhs),rhsMax =  -1.11246281662099E+00  1.36174336212570E-02
(PID.TID 0000.0001)      cg2d_init_res =   1.34032772363723E-01
(PID.TID 0000.0001)      cg2d_iters(min,last) =      -1      29
(PID.TID 0000.0001)      cg2d_last_res =   4.87192869923047E-08
(PID.TID 0000.0001) // =======================================================
(PID.TID 0000.0001) // Begin MONITOR dynamic field statistics
(PID.TID 0000.0001) // =======================================================
(PID.TID 0000.0001) %MON time_tsnumber                =                     7
(PID.TID 0000.0001) %MON time_secondsf                =   1.7500000000000E+02
(PID.TID 0000.0001) %MON dynstat_eta_max              =   6.8242705562774E-04
(PID.TID 0000.0001) %MON dynstat_eta_min              =   2.0507543709934E-04
(PID.TID 0000.0001) %MON dynstat_eta_mean             =   2.1916794793769E-04
(PID.TID 0000.0001) %MON dynstat_eta_sd               =   3.7368960627866E-05
(PID.TID 0000.0001) %MON dynstat_eta_del2             =   7.2450221281441E-06
(PID.TID 0000.0001) %MON dynstat_uvel_max             =   2.2234102579404E-03
(PID.TID 0000.0001) %MON dynstat_uvel_min             =  -5.5873189371868E-04
(PID.TID 0000.0001) %MON dynstat_uvel_mean            =   1.4418877867076E-05
(PID.TID 0000.0001) %MON dynstat_uvel_sd              =   8.0074928084807E-05
(PID.TID 0000.0001) %MON dynstat_uvel_del2            =   4.1972233781172E-06
(PID.TID 0000.0001) %MON dynstat_vvel_max             =   2.2055976154666E-03
(PID.TID 0000.0001) %MON dynstat_vvel_min             =  -2.2055976154666E-03
(PID.TID 0000.0001) %MON dynstat_vvel_mean            =   1.2112060245319E-20
(PID.TID 0000.0001) %MON dynstat_vvel_sd              =   1.1609943900850E-04
(PID.TID 0000.0001) %MON dynstat_vvel_del2            =   8.0991791817016E-06
(PID.TID 0000.0001) %MON dynstat_wvel_max             =   6.6014711455545E-04
(PID.TID 0000.0001) %MON dynstat_wvel_min             =  -7.0940642284622E-03
(PID.TID 0000.0001) %MON dynstat_wvel_mean            =  -1.8137784389973E-05
(PID.TID 0000.0001) %MON dynstat_wvel_sd              =   2.6660973493451E-04
(PID.TID 0000.0001) %MON dynstat_wvel_del2            =   1.3112089527132E-05
(PID.TID 0000.0001) %MON dynstat_theta_max            =   1.6999977962626E+00
(PID.TID 0000.0001) %MON dynstat_theta_min            =   5.5340762610114E-02
(PID.TID 0000.0001) %MON dynstat_theta_mean           =   9.7576510565265E-01
(PID.TID 0000.0001) %MON dynstat_theta_sd             =   5.8657990904369E-01
(PID.TID 0000.0001) %MON dynstat_theta_del2           =   1.1337894738853E-04
(PID.TID 0000.0001) %MON dynstat_salt_max             =   3.4483332750005E+01
(PID.TID 0000.0001) %MON dynstat_salt_min             =   3.2397226930986E+01
(PID.TID 0000.0001) %MON dynstat_salt_mean            =   3.4032175928967E+01
(PID.TID 0000.0001) %MON dynstat_salt_sd              =   5.6578047162203E-01
(PID.TID 0000.0001) %MON dynstat_salt_del2            =   5.2482367610879E-05
(PID.TID 0000.0001) %MON advcfl_uvel_max              =   2.7792628224255E-04
(PID.TID 0000.0001) %MON advcfl_vvel_max              =   2.7569970193332E-04
(PID.TID 0000.0001) %MON advcfl_wvel_max              =   1.7735160571156E-02
(PID.TID 0000.0001) %MON advcfl_W_hf_max              =   1.7735091408500E-02
(PID.TID 0000.0001) %MON pe_b_mean                    =   1.6163926115758E-09
(PID.TID 0000.0001) %MON ke_max                       =   3.6682138667232E-06
(PID.TID 0000.0001) %MON ke_mean                      =   9.1167651068863E-09
(PID.TID 0000.0001) %MON ke_vol                       =   9.7200121732149E+08
(PID.TID 0000.0001) // =======================================================
(PID.TID 0000.0001) // End MONITOR dynamic field statistics
(PID.TID 0000.0001) // =======================================================
 cg2d: Sum(rhs),rhsMax =  -1.14921904913137E+00  1.50650255320026E-02
(PID.TID 0000.0001)      cg2d_init_res =   1.01546117452922E-01
(PID.TID 0000.0001)      cg2d_iters(min,last) =      -1      29
(PID.TID 0000.0001)      cg2d_last_res =   4.11499931684431E-08
(PID.TID 0000.0001) // =======================================================
(PID.TID 0000.0001) // Begin MONITOR dynamic field statistics
(PID.TID 0000.0001) // =======================================================
(PID.TID 0000.0001) %MON time_tsnumber                =                     8
(PID.TID 0000.0001) %MON time_secondsf                =   2.0000000000000E+02
(PID.TID 0000.0001) %MON dynstat_eta_max              =   7.7670309074771E-04
(PID.TID 0000.0001) %MON dynstat_eta_min              =   2.4112994150871E-04
(PID.TID 0000.0001) %MON dynstat_eta_mean             =   2.5047763768848E-04
(PID.TID 0000.0001) %MON dynstat_eta_sd               =   4.1839356056647E-05
(PID.TID 0000.0001) %MON dynstat_eta_del2             =   7.9681436438629E-06
(PID.TID 0000.0001) %MON dynstat_uvel_max             =   2.8550936653583E-03
(PID.TID 0000.0001) %MON dynstat_uvel_min             =  -7.5446304770723E-04
(PID.TID 0000.0001) %MON dynstat_uvel_mean            =   1.3603857542926E-05
(PID.TID 0000.0001) %MON dynstat_uvel_sd              =   1.0361044240467E-04
(PID.TID 0000.0001) %MON dynstat_uvel_del2            =   5.3884962378614E-06
(PID.TID 0000.0001) %MON dynstat_vvel_max             =   2.8361900285425E-03
(PID.TID 0000.0001) %MON dynstat_vvel_min             =  -2.8361900285425E-03
(PID.TID 0000.0001) %MON dynstat_vvel_mean            =   1.3834824458039E-20
(PID.TID 0000.0001) %MON dynstat_vvel_sd              =   1.5036036708860E-04
(PID.TID 0000.0001) %MON dynstat_vvel_del2            =   1.0453727237251E-05
(PID.TID 0000.0001) %MON dynstat_wvel_max             =   8.4690528690132E-04
(PID.TID 0000.0001) %MON dynstat_wvel_min             =  -6.8415540065608E-03
(PID.TID 0000.0001) %MON dynstat_wvel_mean            =  -1.8137703388725E-05
(PID.TID 0000.0001) %MON dynstat_wvel_sd              =   2.5501258400731E-04
(PID.TID 0000.0001) %MON dynstat_wvel_del2            =   1.2236858336847E-05
(PID.TID 0000.0001) %MON dynstat_theta_max            =   1.6999974814463E+00
(PID.TID 0000.0001) %MON dynstat_theta_min            =   5.5338555023664E-02
(PID.TID 0000.0001) %MON dynstat_theta_mean           =   9.7576420785413E-01
(PID.TID 0000.0001) %MON dynstat_theta_sd             =   5.8657317638969E-01
(PID.TID 0000.0001) %MON dynstat_theta_del2           =   1.2496686612075E-04
(PID.TID 0000.0001) %MON dynstat_salt_max             =   3.4483332666673E+01
(PID.TID 0000.0001) %MON dynstat_salt_min             =   3.2397227632913E+01
(PID.TID 0000.0001) %MON dynstat_salt_mean            =   3.4032169307948E+01
(PID.TID 0000.0001) %MON dynstat_salt_sd              =   5.6578210568274E-01
(PID.TID 0000.0001) %MON dynstat_salt_del2            =   5.7091342402502E-05
(PID.TID 0000.0001) %MON advcfl_uvel_max              =   3.5688670816979E-04
(PID.TID 0000.0001) %MON advcfl_vvel_max              =   3.5452375356782E-04
(PID.TID 0000.0001) %MON advcfl_wvel_max              =   1.7103885016402E-02
(PID.TID 0000.0001) %MON advcfl_W_hf_max              =   1.7103807202397E-02
(PID.TID 0000.0001) %MON pe_b_mean                    =   2.1088061421816E-09
(PID.TID 0000.0001) %MON ke_max                       =   6.0598677518913E-06
(PID.TID 0000.0001) %MON ke_mean                      =   1.5204862420285E-08
(PID.TID 0000.0001) %MON ke_vol                       =   9.7200142020830E+08
(PID.TID 0000.0001) // =======================================================
(PID.TID 0000.0001) // End MONITOR dynamic field statistics
(PID.TID 0000.0001) // =======================================================
(PID.TID 0000.0001) %CHECKPOINT         8 ckptA
(PID.TID 0000.0001)   Seconds in section "ALL                    [THE_MODEL_MAIN]":
(PID.TID 0000.0001)           User time:  0.107789002358913
(PID.TID 0000.0001)         System time:  0.000000000000000E+000
(PID.TID 0000.0001)     Wall clock time:   1.61873912811279
(PID.TID 0000.0001)          No. starts:           1
(PID.TID 0000.0001)           No. stops:           1
(PID.TID 0000.0001)   Seconds in section "INITIALISE_FIXED       [THE_MODEL_MAIN]":
(PID.TID 0000.0001)           User time:  1.800199970602989E-002
(PID.TID 0000.0001)         System time:  0.000000000000000E+000
(PID.TID 0000.0001)     Wall clock time:  0.253646135330200
(PID.TID 0000.0001)          No. starts:           1
(PID.TID 0000.0001)           No. stops:           1
(PID.TID 0000.0001)   Seconds in section "THE_MAIN_LOOP          [THE_MODEL_MAIN]":
(PID.TID 0000.0001)           User time:  8.977900445461273E-002
(PID.TID 0000.0001)         System time:  0.000000000000000E+000
(PID.TID 0000.0001)     Wall clock time:   1.36505985260010
(PID.TID 0000.0001)          No. starts:           1
(PID.TID 0000.0001)           No. stops:           1
(PID.TID 0000.0001)   Seconds in section "INITIALISE_VARIA    [THE_MAIN_LOOP]":
(PID.TID 0000.0001)           User time:  2.259999513626099E-003
(PID.TID 0000.0001)         System time:  0.000000000000000E+000
(PID.TID 0000.0001)     Wall clock time:  4.127097129821777E-002
(PID.TID 0000.0001)          No. starts:           1
(PID.TID 0000.0001)           No. stops:           1
(PID.TID 0000.0001)   Seconds in section "MAIN LOOP           [THE_MAIN_LOOP]":
(PID.TID 0000.0001)           User time:  8.751200512051582E-002
(PID.TID 0000.0001)         System time:  0.000000000000000E+000
(PID.TID 0000.0001)     Wall clock time:   1.32376098632812
(PID.TID 0000.0001)          No. starts:           1
(PID.TID 0000.0001)           No. stops:           1
(PID.TID 0000.0001)   Seconds in section "MAIN_DO_LOOP        [THE_MAIN_LOOP]":
(PID.TID 0000.0001)           User time:  8.749399334192276E-002
(PID.TID 0000.0001)         System time:  0.000000000000000E+000
(PID.TID 0000.0001)     Wall clock time:   1.32369732856750
(PID.TID 0000.0001)          No. starts:           8
(PID.TID 0000.0001)           No. stops:           8
(PID.TID 0000.0001)   Seconds in section "FORWARD_STEP        [MAIN_DO_LOOP]":
(PID.TID 0000.0001)           User time:  8.745600283145905E-002
(PID.TID 0000.0001)         System time:  0.000000000000000E+000
(PID.TID 0000.0001)     Wall clock time:   1.32358574867249
(PID.TID 0000.0001)          No. starts:           8
(PID.TID 0000.0001)           No. stops:           8
(PID.TID 0000.0001)   Seconds in section "DO_STATEVARS_DIAGS  [FORWARD_STEP]":
(PID.TID 0000.0001)           User time:  1.067027449607849E-003
(PID.TID 0000.0001)         System time:  0.000000000000000E+000
(PID.TID 0000.0001)     Wall clock time:  1.425743103027344E-003
(PID.TID 0000.0001)          No. starts:          24
(PID.TID 0000.0001)           No. stops:          24
(PID.TID 0000.0001)   Seconds in section "LOAD_FIELDS_DRIVER  [FORWARD_STEP]":
(PID.TID 0000.0001)           User time:  1.050084829330444E-004
(PID.TID 0000.0001)         System time:  0.000000000000000E+000
(PID.TID 0000.0001)     Wall clock time:  2.534389495849609E-004
(PID.TID 0000.0001)          No. starts:           8
(PID.TID 0000.0001)           No. stops:           8
(PID.TID 0000.0001)   Seconds in section "EXTERNAL_FLDS_LOAD [LOAD_FLDS_DRIVER]":
(PID.TID 0000.0001)           User time:  2.300366759300232E-005
(PID.TID 0000.0001)         System time:  0.000000000000000E+000
(PID.TID 0000.0001)     Wall clock time:  5.817413330078125E-005
(PID.TID 0000.0001)          No. starts:           8
(PID.TID 0000.0001)           No. stops:           8
(PID.TID 0000.0001)   Seconds in section "DO_ATMOSPHERIC_PHYS [FORWARD_STEP]":
(PID.TID 0000.0001)           User time:  2.900883555412292E-005
(PID.TID 0000.0001)         System time:  0.000000000000000E+000
(PID.TID 0000.0001)     Wall clock time:  6.151199340820312E-005
(PID.TID 0000.0001)          No. starts:           8
(PID.TID 0000.0001)           No. stops:           8
(PID.TID 0000.0001)   Seconds in section "DO_OCEANIC_PHYS     [FORWARD_STEP]":
(PID.TID 0000.0001)           User time:  7.522005587816238E-003
(PID.TID 0000.0001)         System time:  0.000000000000000E+000
(PID.TID 0000.0001)     Wall clock time:  8.255004882812500E-003
(PID.TID 0000.0001)          No. starts:           8
(PID.TID 0000.0001)           No. stops:           8
(PID.TID 0000.0001)   Seconds in section "ICEPLUME_CALC [DO_OCEANIC_PHYS]":
(PID.TID 0000.0001)           User time:  4.473008215427399E-003
(PID.TID 0000.0001)         System time:  0.000000000000000E+000
(PID.TID 0000.0001)     Wall clock time:  4.749059677124023E-003
(PID.TID 0000.0001)          No. starts:           8
(PID.TID 0000.0001)           No. stops:           8
(PID.TID 0000.0001)   Seconds in section "DYNAMICS            [FORWARD_STEP]":
(PID.TID 0000.0001)           User time:  1.633700355887413E-002
(PID.TID 0000.0001)         System time:  0.000000000000000E+000
(PID.TID 0000.0001)     Wall clock time:  1.726508140563965E-002
(PID.TID 0000.0001)          No. starts:           8
(PID.TID 0000.0001)           No. stops:           8
(PID.TID 0000.0001)   Seconds in section "UPDATE_R_STAR       [FORWARD_STEP]":
(PID.TID 0000.0001)           User time:  3.760010004043579E-004
(PID.TID 0000.0001)         System time:  0.000000000000000E+000
(PID.TID 0000.0001)     Wall clock time:  4.270076751708984E-004
(PID.TID 0000.0001)          No. starts:           8
(PID.TID 0000.0001)           No. stops:           8
(PID.TID 0000.0001)   Seconds in section "UPDATE_CG2D         [FORWARD_STEP]":
(PID.TID 0000.0001)           User time:  2.330057322978973E-004
(PID.TID 0000.0001)         System time:  0.000000000000000E+000
(PID.TID 0000.0001)     Wall clock time:  2.584457397460938E-004
(PID.TID 0000.0001)          No. starts:           8
(PID.TID 0000.0001)           No. stops:           8
(PID.TID 0000.0001)   Seconds in section "SOLVE_FOR_PRESSURE  [FORWARD_STEP]":
(PID.TID 0000.0001)           User time:  2.749986946582794E-003
(PID.TID 0000.0001)         System time:  0.000000000000000E+000
(PID.TID 0000.0001)     Wall clock time:  3.355264663696289E-003
(PID.TID 0000.0001)          No. starts:           8
(PID.TID 0000.0001)           No. stops:           8
(PID.TID 0000.0001)   Seconds in section "MOM_CORRECTION_STEP [FORWARD_STEP]":
(PID.TID 0000.0001)           User time:  3.020167350769043E-004
(PID.TID 0000.0001)         System time:  0.000000000000000E+000
(PID.TID 0000.0001)     Wall clock time:  3.726482391357422E-004
(PID.TID 0000.0001)          No. starts:           8
(PID.TID 0000.0001)           No. stops:           8
(PID.TID 0000.0001)   Seconds in section "INTEGR_CONTINUITY   [FORWARD_STEP]":
(PID.TID 0000.0001)           User time:  3.940016031265259E-004
(PID.TID 0000.0001)         System time:  0.000000000000000E+000
(PID.TID 0000.0001)     Wall clock time:  4.642009735107422E-004
(PID.TID 0000.0001)          No. starts:           8
(PID.TID 0000.0001)           No. stops:           8
(PID.TID 0000.0001)   Seconds in section "CALC_R_STAR         [FORWARD_STEP]":
(PID.TID 0000.0001)           User time:  1.920014619827271E-004
(PID.TID 0000.0001)         System time:  0.000000000000000E+000
(PID.TID 0000.0001)     Wall clock time:  2.300739288330078E-004
(PID.TID 0000.0001)          No. starts:           8
(PID.TID 0000.0001)           No. stops:           8
(PID.TID 0000.0001)   Seconds in section "BLOCKING_EXCHANGES  [FORWARD_STEP]":
(PID.TID 0000.0001)           User time:  5.279928445816040E-004
(PID.TID 0000.0001)         System time:  0.000000000000000E+000
(PID.TID 0000.0001)     Wall clock time:  6.184577941894531E-004
(PID.TID 0000.0001)          No. starts:          16
(PID.TID 0000.0001)           No. stops:          16
(PID.TID 0000.0001)   Seconds in section "THERMODYNAMICS      [FORWARD_STEP]":
(PID.TID 0000.0001)           User time:  1.181298866868019E-002
(PID.TID 0000.0001)         System time:  0.000000000000000E+000
(PID.TID 0000.0001)     Wall clock time:  1.192998886108398E-002
(PID.TID 0000.0001)          No. starts:           8
(PID.TID 0000.0001)           No. stops:           8
(PID.TID 0000.0001)   Seconds in section "TRC_CORRECTION_STEP [FORWARD_STEP]":
(PID.TID 0000.0001)           User time:  5.400925874710083E-005
(PID.TID 0000.0001)         System time:  0.000000000000000E+000
(PID.TID 0000.0001)     Wall clock time:  6.103515625000000E-005
(PID.TID 0000.0001)          No. starts:           8
(PID.TID 0000.0001)           No. stops:           8
(PID.TID 0000.0001)   Seconds in section "MONITOR             [FORWARD_STEP]":
(PID.TID 0000.0001)           User time:  5.465004593133926E-003
(PID.TID 0000.0001)         System time:  0.000000000000000E+000
(PID.TID 0000.0001)     Wall clock time:  5.466461181640625E-003
(PID.TID 0000.0001)          No. starts:           8
(PID.TID 0000.0001)           No. stops:           8
(PID.TID 0000.0001)   Seconds in section "DO_THE_MODEL_IO     [FORWARD_STEP]":
(PID.TID 0000.0001)           User time:  3.931499272584915E-002
(PID.TID 0000.0001)         System time:  0.000000000000000E+000
(PID.TID 0000.0001)     Wall clock time:   1.18982887268066
(PID.TID 0000.0001)          No. starts:           8
(PID.TID 0000.0001)           No. stops:           8
(PID.TID 0000.0001)   Seconds in section "DO_WRITE_PICKUP     [FORWARD_STEP]":
(PID.TID 0000.0001)           User time:  1.899152994155884E-005
(PID.TID 0000.0001)         System time:  0.000000000000000E+000
(PID.TID 0000.0001)     Wall clock time:  8.206176757812500E-002
(PID.TID 0000.0001)          No. starts:           8
(PID.TID 0000.0001)           No. stops:           8
(PID.TID 0000.0001) // ======================================================
(PID.TID 0000.0001) // Tile <-> Tile communication statistics
(PID.TID 0000.0001) // ======================================================
(PID.TID 0000.0001) // o Tile number: 000001
(PID.TID 0000.0001) //         No. X exchanges =              0
(PID.TID 0000.0001) //            Max. X spins =              0
(PID.TID 0000.0001) //            Min. X spins =     1000000000
(PID.TID 0000.0001) //          Total. X spins =              0
(PID.TID 0000.0001) //            Avg. X spins =       0.00E+00
(PID.TID 0000.0001) //         No. Y exchanges =              0
(PID.TID 0000.0001) //            Max. Y spins =              0
(PID.TID 0000.0001) //            Min. Y spins =     1000000000
(PID.TID 0000.0001) //          Total. Y spins =              0
(PID.TID 0000.0001) //            Avg. Y spins =       0.00E+00
(PID.TID 0000.0001) // o Thread number: 000001
(PID.TID 0000.0001) //            No. barriers =          14158
(PID.TID 0000.0001) //      Max. barrier spins =              1
(PID.TID 0000.0001) //      Min. barrier spins =              1
(PID.TID 0000.0001) //     Total barrier spins =          14158
(PID.TID 0000.0001) //      Avg. barrier spins =       1.00E+00
PROGRAM MAIN: Execution ended Normally
