(PID.TID 0000.0001) 
(PID.TID 0000.0001) // ======================================================
(PID.TID 0000.0001) //                      MITgcm UV
(PID.TID 0000.0001) //                      =========
(PID.TID 0000.0001) // ======================================================
(PID.TID 0000.0001) // execution environment starting up...
(PID.TID 0000.0001) 
(PID.TID 0000.0001) // MITgcmUV version:  checkpoint68m
(PID.TID 0000.0001) // Build user:        atnguyen
(PID.TID 0000.0001) // Build host:        nansen
(PID.TID 0000.0001) // Build date:        Fri Jan 13 03:07:41 AM CST 2023
(PID.TID 0000.0001) 
(PID.TID 0000.0001) // =======================================================
(PID.TID 0000.0001) // Execution Environment parameter file "eedata"
(PID.TID 0000.0001) // =======================================================
(PID.TID 0000.0001) ># Example "eedata" file
(PID.TID 0000.0001) ># Lines beginning "#" are comments
(PID.TID 0000.0001) ># nTx - No. threads per process in X
(PID.TID 0000.0001) ># nTy - No. threads per process in Y
(PID.TID 0000.0001) > &EEPARMS
(PID.TID 0000.0001) > nTx=1,
(PID.TID 0000.0001) > nTy=1,
(PID.TID 0000.0001) > /
(PID.TID 0000.0001) ># Note: Some systems use & as the
(PID.TID 0000.0001) ># namelist terminator. Other systems
(PID.TID 0000.0001) ># use a / character (as shown here).
(PID.TID 0000.0001) 
(PID.TID 0000.0001) // =======================================================
(PID.TID 0000.0001) // Computational Grid Specification ( see files "SIZE.h" )
(PID.TID 0000.0001) //                                  ( and "eedata"       )
(PID.TID 0000.0001) // =======================================================
(PID.TID 0000.0001)      nPx =    1 ; /* No. processes in X */
(PID.TID 0000.0001)      nPy =    1 ; /* No. processes in Y */
(PID.TID 0000.0001)      nSx =    1 ; /* No. tiles in X per process */
(PID.TID 0000.0001)      nSy =    1 ; /* No. tiles in Y per process */
(PID.TID 0000.0001)      sNx =   20 ; /* Tile size in X */
(PID.TID 0000.0001)      sNy =   16 ; /* Tile size in Y */
(PID.TID 0000.0001)      OLx =    4 ; /* Tile overlap distance in X */
(PID.TID 0000.0001)      OLy =    4 ; /* Tile overlap distance in Y */
(PID.TID 0000.0001)      nTx =    1 ; /* No. threads in X per process */
(PID.TID 0000.0001)      nTy =    1 ; /* No. threads in Y per process */
(PID.TID 0000.0001)       Nr =   23 ; /* No. levels in the vertical   */
(PID.TID 0000.0001)       Nx =   20 ; /* Total domain size in X ( = nPx*nSx*sNx ) */
(PID.TID 0000.0001)       Ny =   16 ; /* Total domain size in Y ( = nPy*nSy*sNy ) */
(PID.TID 0000.0001)   nTiles =    1 ; /* Total no. tiles per process ( = nSx*nSy ) */
(PID.TID 0000.0001)   nProcs =    1 ; /* Total no. processes ( = nPx*nPy ) */
(PID.TID 0000.0001) nThreads =    1 ; /* Total no. threads per process ( = nTx*nTy ) */
(PID.TID 0000.0001) usingMPI =    F ; /* Flag used to control whether MPI is in use */
(PID.TID 0000.0001)                   /*  note: To execute a program with MPI calls */
(PID.TID 0000.0001)                   /*  it must be launched appropriately e.g     */
(PID.TID 0000.0001)                   /*  "mpirun -np 64 ......"                    */
(PID.TID 0000.0001) useCoupler=   F ; /* Flag used to control communications with   */
(PID.TID 0000.0001)                   /*  other model components, through a coupler */
(PID.TID 0000.0001) useNest2W_parent =    F ;/* Control 2-W Nesting comm */
(PID.TID 0000.0001) useNest2W_child  =    F ;/* Control 2-W Nesting comm */
(PID.TID 0000.0001) debugMode =    F ; /* print debug msg. (sequence of S/R calls)  */
(PID.TID 0000.0001) printMapIncludesZeros=    F ; /* print zeros in Std.Output maps */
(PID.TID 0000.0001) maxLengthPrt1D=   65 /* maxLength of 1D array printed to StdOut */
(PID.TID 0000.0001) 
(PID.TID 0000.0001) // ======================================================
(PID.TID 0000.0001) // Mapping of tiles to threads
(PID.TID 0000.0001) // ======================================================
(PID.TID 0000.0001) // -o- Thread   1, tiles (   1:   1,   1:   1)
(PID.TID 0000.0001) 
(PID.TID 0000.0001) // ======================================================
(PID.TID 0000.0001) // Tile <-> Tile connectvity table
(PID.TID 0000.0001) // ======================================================
(PID.TID 0000.0001) // Tile number: 000001 (process no. = 000000)
(PID.TID 0000.0001) //        WEST: Tile = 000001, Process = 000000, Comm = put
(PID.TID 0000.0001) //                bi = 000001, bj = 000001
(PID.TID 0000.0001) //        EAST: Tile = 000001, Process = 000000, Comm = put
(PID.TID 0000.0001) //                bi = 000001, bj = 000001
(PID.TID 0000.0001) //       SOUTH: Tile = 000001, Process = 000000, Comm = put
(PID.TID 0000.0001) //                bi = 000001, bj = 000001
(PID.TID 0000.0001) //       NORTH: Tile = 000001, Process = 000000, Comm = put
(PID.TID 0000.0001) //                bi = 000001, bj = 000001
(PID.TID 0000.0001) 
(PID.TID 0000.0001)  INI_PARMS: opening model parameter file "data"
(PID.TID 0000.0001)  OPEN_COPY_DATA_FILE: opening file data
(PID.TID 0000.0001) // =======================================================
(PID.TID 0000.0001) // Parameter file "data"
(PID.TID 0000.0001) // =======================================================
(PID.TID 0000.0001) ># ====================
(PID.TID 0000.0001) ># | Model parameters |
(PID.TID 0000.0001) ># ====================
(PID.TID 0000.0001) >#
(PID.TID 0000.0001) ># Continuous equation parameters
(PID.TID 0000.0001) >#
(PID.TID 0000.0001) >#   tRef            - Reference vertical potential temperature          (deg C)
(PID.TID 0000.0001) >#   sRef            - Reference vertical salinity                         (PSU)
(PID.TID 0000.0001) >#   viscAh          - Horizontal eddy viscosity coefficient             (m^2/s)
(PID.TID 0000.0001) >#   viscAz          - Vertical eddy viscosity coefficient               (m^2/s)
(PID.TID 0000.0001) >#   diffKhT         - Horizontal temperature diffusivity                (m^2/s)
(PID.TID 0000.0001) >#   diffKzT         - Vertical temperature diffusivity                  (m^2/s)
(PID.TID 0000.0001) >#   diffKhS         - Horizontal salt diffusivity                       (m^2/s)
(PID.TID 0000.0001) >#   diffKzS         - Vertical salt diffusivity                         (m^2/s)
(PID.TID 0000.0001) >#   gravity         - Acceleration due to gravity                       (m/s^2)
(PID.TID 0000.0001) >#   rigidLid        - Set to true to use rigid lid
(PID.TID 0000.0001) >#   implicitFreeSurface - Set to true to use implicit free surface
(PID.TID 0000.0001) >#   eosType         - Flag for linear or polynomial equation of state
(PID.TID 0000.0001) >#   momAdvection    - On/Off flag for momentum self transport
(PID.TID 0000.0001) >#   momViscosity    - On/Off flag for momentum mixing
(PID.TID 0000.0001) >#
(PID.TID 0000.0001) > &PARM01
(PID.TID 0000.0001) > tRef= 24.0 , 23.0 , 22.0 , 21.0 , 20.0 ,
(PID.TID 0000.0001) >       19.0 , 18.0 , 17.0 , 16.0 , 15.0 ,
(PID.TID 0000.0001) >       14.0 , 13.0 , 12.0 , 11.0 , 10.0 ,
(PID.TID 0000.0001) >        9.0 ,  8.0 ,  7.0 ,  6.0,   5.0 ,
(PID.TID 0000.0001) >        4.0 ,  3.0 ,  2.0 ,
(PID.TID 0000.0001) > sRef= 34.65, 34.75, 34.82, 34.87, 34.90,
(PID.TID 0000.0001) >       34.90, 34.86, 34.78, 34.69, 34.60,
(PID.TID 0000.0001) >       34.58, 34.62, 34.68, 34.72, 34.73,
(PID.TID 0000.0001) >       34.74, 34.73, 34.73, 34.72, 34.72,
(PID.TID 0000.0001) >       34.71, 34.70, 34.69,
(PID.TID 0000.0001) > no_slip_sides=.FALSE.,
(PID.TID 0000.0001) > no_slip_bottom=.TRUE.,
(PID.TID 0000.0001) > viscAz=1.93e-5,
(PID.TID 0000.0001) > viscAh=5.E4,
(PID.TID 0000.0001) > diffKhT=0.0,
(PID.TID 0000.0001) > diffKzT=1.46e-5,
(PID.TID 0000.0001) > diffKhS=0.0,
(PID.TID 0000.0001) > diffKzS=1.46e-5,
(PID.TID 0000.0001) > implicitFreeSurface=.TRUE.,
(PID.TID 0000.0001) > eosType='JMD95Z',
(PID.TID 0000.0001) > saltStepping=.TRUE.,
(PID.TID 0000.0001) > tempStepping=.TRUE.,
(PID.TID 0000.0001) > momStepping=.TRUE.,
(PID.TID 0000.0001) > implicitDiffusion=.TRUE.,
(PID.TID 0000.0001) > implicitViscosity=.TRUE.,
(PID.TID 0000.0001) > allowFreezing=.FALSE.,
(PID.TID 0000.0001) >#- set wrong celsius2K to reproduce old results:
(PID.TID 0000.0001) > celsius2K=273.16,
(PID.TID 0000.0001) > HeatCapacity_Cp = 3986.D0,
(PID.TID 0000.0001) > gravity         = 9.8156,
(PID.TID 0000.0001) > rhoConst        = 1027.D0,
(PID.TID 0000.0001) > rhoConstFresh   = 999.8,
(PID.TID 0000.0001) > useCDscheme=.TRUE.,
(PID.TID 0000.0001) >#ph(
(PID.TID 0000.0001) > staggerTimeStep=.TRUE.,
(PID.TID 0000.0001) > multiDimAdvection=.TRUE.,
(PID.TID 0000.0001) > tempAdvScheme=30,
(PID.TID 0000.0001) > saltAdvScheme=30,
(PID.TID 0000.0001) >#ph)
(PID.TID 0000.0001) >#globalFiles=.TRUE.,
(PID.TID 0000.0001) >#- not safe to use globalFiles in multi-processors runs; set instead useSingleCpuIO
(PID.TID 0000.0001) > useSingleCpuIO=.true.,
(PID.TID 0000.0001) > readBinaryPrec=32,
(PID.TID 0000.0001) > writeBinaryPrec=32,
(PID.TID 0000.0001) > debugLevel=4,
(PID.TID 0000.0001) > /
(PID.TID 0000.0001) >
(PID.TID 0000.0001) ># Elliptic solver parameters
(PID.TID 0000.0001) >#
(PID.TID 0000.0001) >#   cg2dMaxIters       - Maximum number of 2d solver iterations
(PID.TID 0000.0001) >#   cg2dTargetResidual - Solver target residual
(PID.TID 0000.0001) >#
(PID.TID 0000.0001) > &PARM02
(PID.TID 0000.0001) > cg2dMaxIters=1000,
(PID.TID 0000.0001) > cg2dTargetResidual=1.E-13,
(PID.TID 0000.0001) > /
(PID.TID 0000.0001) >
(PID.TID 0000.0001) ># Time stepping parameters
(PID.TID 0000.0001) >#
(PID.TID 0000.0001) >#   startTime         - Integration starting time                (s)
(PID.TID 0000.0001) >#   endTime           - Integration ending time                  (s)
(PID.TID 0000.0001) >#   tauCD             - CD scheme coupling timescale             (s)
(PID.TID 0000.0001) >#   deltaTMom         - Timestep for momemtum equations          (s)
(PID.TID 0000.0001) >#   deltaTtracer      - Tracer timestep                          (s)
(PID.TID 0000.0001) >#   deltaTClock       - Timestep used as model "clock"           (s)
(PID.TID 0000.0001) >#   abEps             - Adams-Bashforth stabilising factor
(PID.TID 0000.0001) >#   pChkPtFreq        - Frequency of permanent check pointing    (s)
(PID.TID 0000.0001) >#   chkPtFreq         - Frequency of rolling check pointing      (s)
(PID.TID 0000.0001) >#   dumpFreq          - Frequency at which model state is stored (s)
(PID.TID 0000.0001) >#   tauThetaClimRelax - Relaxation to climatology time scale     (s)
(PID.TID 0000.0001) >#   tauSaltClimRelax  - Relaxation to climatology time scale     (s)
(PID.TID 0000.0001) >#
(PID.TID 0000.0001) > &PARM03
(PID.TID 0000.0001) > tauCD=172800.,
(PID.TID 0000.0001) > niter0=5,
(PID.TID 0000.0001) > nTimeSteps=4,
(PID.TID 0000.0001) > deltaTmom=3600.0,
(PID.TID 0000.0001) > deltaTtracer=3600.0,
(PID.TID 0000.0001) > deltaTClock =3600.0,
(PID.TID 0000.0001) > cAdjFreq=0.,
(PID.TID 0000.0001) > abEps=0.1,
(PID.TID 0000.0001) > forcing_In_AB = .FALSE.,
(PID.TID 0000.0001) > pChkptFreq=3600.,
(PID.TID 0000.0001) > chkptFreq= 0.,
(PID.TID 0000.0001) > dumpFreq = 0.,
(PID.TID 0000.0001) > monitorFreq=1.,
(PID.TID 0000.0001) > adjMonitorFreq=1.,
(PID.TID 0000.0001) > adjDumpFreq=1.,
(PID.TID 0000.0001) > /
(PID.TID 0000.0001) >
(PID.TID 0000.0001) ># Gridding parameters
(PID.TID 0000.0001) >#
(PID.TID 0000.0001) >#   usingSphericalPolarGrid - On/Off flag for spherical polar coordinates
(PID.TID 0000.0001) >#   delX                    - Zonal grid spacing         (degrees)
(PID.TID 0000.0001) >#   delY                    - Meridional grid spacing    (degrees)
(PID.TID 0000.0001) >#   delZ                    - Vertical grid spacing      (m)
(PID.TID 0000.0001) >#   ygOrigin                - Southern boundary latitude (degrees)
(PID.TID 0000.0001) >#
(PID.TID 0000.0001) > &PARM04
(PID.TID 0000.0001) > usingSphericalPolarGrid=.TRUE.,
(PID.TID 0000.0001) > delX=20*2.E0,
(PID.TID 0000.0001) > delY=16*2.E0,
(PID.TID 0000.0001) > delZ= 10., 10., 15., 20., 20., 25., 35., 50., 75.,
(PID.TID 0000.0001) >       100., 150., 200., 275., 350., 415., 450.,
(PID.TID 0000.0001) >       500., 500., 500., 500., 500., 500., 500.,
(PID.TID 0000.0001) > ygOrigin=46.,
(PID.TID 0000.0001) > xgOrigin=280.,
(PID.TID 0000.0001) > rSphere = 6371.D3,
(PID.TID 0000.0001) > /
(PID.TID 0000.0001) >
(PID.TID 0000.0001) ># Input datasets
(PID.TID 0000.0001) >#
(PID.TID 0000.0001) >#   bathyFile       - File containing bathymetry
(PID.TID 0000.0001) >#   hydrogThetaFile - File containing initial potential temperature data
(PID.TID 0000.0001) >#   hydrogSaltFile  - File containing initial salinity data
(PID.TID 0000.0001) >#   zonalWindFile   - File containing zonal wind data
(PID.TID 0000.0001) >#   meridWindFile   - File containing meridional wind data
(PID.TID 0000.0001) >#   thetaClimFile   - File containing theta climatology used for relaxation
(PID.TID 0000.0001) >#   saltClimFile    - File containing salt climatology used for relaxation
(PID.TID 0000.0001) >#
(PID.TID 0000.0001) > &PARM05
(PID.TID 0000.0001) > bathyFile       = 'bathy.labsea1979',
(PID.TID 0000.0001) > hydrogThetaFile = 'LevCli_temp.labsea1979',
(PID.TID 0000.0001) > hydrogSaltFile  = 'LevCli_salt.labsea1979',
(PID.TID 0000.0001) > /
(PID.TID 0000.0001) >
(PID.TID 0000.0001) 
(PID.TID 0000.0001)  INI_PARMS ; starts to read PARM01
(PID.TID 0000.0001)  INI_PARMS ; read PARM01 : OK
(PID.TID 0000.0001)  INI_PARMS ; starts to read PARM02
(PID.TID 0000.0001)  INI_PARMS ; read PARM02 : OK
(PID.TID 0000.0001)  INI_PARMS ; starts to read PARM03
(PID.TID 0000.0001)  INI_PARMS ; read PARM03 : OK
(PID.TID 0000.0001)  INI_PARMS ; starts to read PARM04
(PID.TID 0000.0001)  INI_PARMS ; read PARM04 : OK
(PID.TID 0000.0001)  INI_PARMS ; starts to read PARM05
(PID.TID 0000.0001)  INI_PARMS ; read PARM05 : OK
(PID.TID 0000.0001)  INI_PARMS: finished reading file "data"
(PID.TID 0000.0001)  PACKAGES_BOOT: opening data.pkg
(PID.TID 0000.0001)  OPEN_COPY_DATA_FILE: opening file data.pkg
(PID.TID 0000.0001) // =======================================================
(PID.TID 0000.0001) // Parameter file "data.pkg"
(PID.TID 0000.0001) // =======================================================
(PID.TID 0000.0001) ># Packages
(PID.TID 0000.0001) > &PACKAGES
(PID.TID 0000.0001) >  useGMRedi = .TRUE.,
(PID.TID 0000.0001) >  useKPP    = .TRUE.,
(PID.TID 0000.0001) >  useEXF    = .TRUE.,
(PID.TID 0000.0001) >  useSEAICE = .TRUE.,
(PID.TID 0000.0001) >  useDOWN_SLOPE=.TRUE.,
(PID.TID 0000.0001) >  useDiagnostics = .true.,
(PID.TID 0000.0001) ># useMNC    = .TRUE.,
(PID.TID 0000.0001) >  useECCO   = .TRUE.,
(PID.TID 0000.0001) >  useGrdchk = .TRUE.,
(PID.TID 0000.0001) > /
(PID.TID 0000.0001) 
(PID.TID 0000.0001)  PACKAGES_BOOT: finished reading data.pkg
(PID.TID 0000.0001)  PACKAGES_BOOT: On/Off package Summary
 --------  pkgs with a standard "usePKG" On/Off switch in "data.pkg":  --------
 pkg/kpp                  compiled   and   used ( useKPP                   = T )
 pkg/gmredi               compiled   and   used ( useGMRedi                = T )
 pkg/down_slope           compiled   and   used ( useDOWN_SLOPE            = T )
 pkg/cal                  compiled   and   used ( useCAL                   = T )
 pkg/exf                  compiled   and   used ( useEXF                   = T )
 pkg/autodiff             compiled   and   used ( useAUTODIFF              = T )
 pkg/grdchk               compiled   and   used ( useGrdchk                = T )
 pkg/ecco                 compiled   and   used ( useECCO                  = T )
 pkg/ctrl                 compiled   and   used ( useCTRL                  = T )
 pkg/seaice               compiled   and   used ( useSEAICE                = T )
 pkg/salt_plume           compiled but not used ( useSALT_PLUME            = F )
 pkg/diagnostics          compiled   and   used ( useDiagnostics           = T )
 pkg/mnc                  compiled but not used ( useMNC                   = F )
 -------- pkgs without standard "usePKG" On/Off switch in "data.pkg":  --------
 pkg/generic_advdiff      compiled   and   used ( useGAD                   = T )
 pkg/mom_common           compiled   and   used ( momStepping              = T )
 pkg/mom_vecinv           compiled but not used ( +vectorInvariantMomentum = F )
 pkg/mom_fluxform         compiled   and   used ( & not vectorInvariantMom = T )
 pkg/cd_code              compiled   and   used ( useCDscheme              = T )
 pkg/monitor              compiled   and   used ( monitorFreq > 0.         = T )
 pkg/debug                compiled but not used ( debugMode                = F )
 pkg/rw                   compiled   and   used
 pkg/mdsio                compiled   and   used
 pkg/autodiff             compiled   and   used
 pkg/cost                 compiled   and   used
(PID.TID 0000.0001)  PACKAGES_BOOT: End of package Summary
(PID.TID 0000.0001) 
(PID.TID 0000.0001) CAL_READPARMS: opening data.cal
(PID.TID 0000.0001)  OPEN_COPY_DATA_FILE: opening file data.cal
(PID.TID 0000.0001) // =======================================================
(PID.TID 0000.0001) // Parameter file "data.cal"
(PID.TID 0000.0001) // =======================================================
(PID.TID 0000.0001) >#
(PID.TID 0000.0001) ># *******************
(PID.TID 0000.0001) ># Calendar Parameters
(PID.TID 0000.0001) ># *******************
(PID.TID 0000.0001) > &CAL_NML
(PID.TID 0000.0001) > TheCalendar='gregorian',
(PID.TID 0000.0001) ># TheCalendar='model',
(PID.TID 0000.0001) > startDate_1=19790101,
(PID.TID 0000.0001) > startDate_2=000000,
(PID.TID 0000.0001) > /
(PID.TID 0000.0001) 
(PID.TID 0000.0001) CAL_READPARMS: finished reading data.cal
(PID.TID 0000.0001) EXF_READPARMS: opening data.exf
(PID.TID 0000.0001)  OPEN_COPY_DATA_FILE: opening file data.exf
(PID.TID 0000.0001) // =======================================================
(PID.TID 0000.0001) // Parameter file "data.exf"
(PID.TID 0000.0001) // =======================================================
(PID.TID 0000.0001) >#
(PID.TID 0000.0001) ># *********************
(PID.TID 0000.0001) ># External Forcing Data
(PID.TID 0000.0001) ># *********************
(PID.TID 0000.0001) > &EXF_NML_01
(PID.TID 0000.0001) >#
(PID.TID 0000.0001) > useExfCheckRange  = .TRUE.,
(PID.TID 0000.0001) > repeatPeriod      = 31622400.0,
(PID.TID 0000.0001) > exf_iprec         = 32,
(PID.TID 0000.0001) >#
(PID.TID 0000.0001) > exf_adjMonSelect  = 3,
(PID.TID 0000.0001) > exf_adjMonFreq    = 10800.,
(PID.TID 0000.0001) > /
(PID.TID 0000.0001) >
(PID.TID 0000.0001) ># *********************
(PID.TID 0000.0001) > &EXF_NML_02
(PID.TID 0000.0001) >#
(PID.TID 0000.0001) > hfluxstartdate1   = 19781216,
(PID.TID 0000.0001) > hfluxstartdate2   = 180000,
(PID.TID 0000.0001) > hfluxperiod       = 2635200.0,
(PID.TID 0000.0001) >#
(PID.TID 0000.0001) > sfluxstartdate1   = 19781216,
(PID.TID 0000.0001) > sfluxstartdate2   = 180000,
(PID.TID 0000.0001) > sfluxperiod       = 2635200.0,
(PID.TID 0000.0001) >#
(PID.TID 0000.0001) > ustressstartdate1 = 19781216,
(PID.TID 0000.0001) > ustressstartdate2 = 180000,
(PID.TID 0000.0001) > ustressperiod     = 2635200.0,
(PID.TID 0000.0001) >#
(PID.TID 0000.0001) > vstressstartdate1 = 19781216,
(PID.TID 0000.0001) > vstressstartdate2 = 180000,
(PID.TID 0000.0001) > vstressperiod     = 2635200.0,
(PID.TID 0000.0001) >#
(PID.TID 0000.0001) > atempstartdate1   = 19781216,
(PID.TID 0000.0001) > atempstartdate2   = 180000,
(PID.TID 0000.0001) > atempperiod       = 2635200.0,
(PID.TID 0000.0001) >#
(PID.TID 0000.0001) > aqhstartdate1     = 19781216,
(PID.TID 0000.0001) > aqhstartdate2     = 180000,
(PID.TID 0000.0001) > aqhperiod         = 2635200.0,
(PID.TID 0000.0001) >#
(PID.TID 0000.0001) >#evapstartdate1    = 19781216,
(PID.TID 0000.0001) >#evapstartdate2    = 180000,
(PID.TID 0000.0001) >#evapperiod        = 2635200.0,
(PID.TID 0000.0001) >#
(PID.TID 0000.0001) > precipstartdate1  = 19781216,
(PID.TID 0000.0001) > precipstartdate2  = 180000,
(PID.TID 0000.0001) > precipperiod      = 2635200.0,
(PID.TID 0000.0001) >#
(PID.TID 0000.0001) > uwindstartdate1   = 19781216,
(PID.TID 0000.0001) > uwindstartdate2   = 180000,
(PID.TID 0000.0001) > uwindperiod       = 2635200.0,
(PID.TID 0000.0001) >#
(PID.TID 0000.0001) > vwindstartdate1   = 19781216,
(PID.TID 0000.0001) > vwindstartdate2   = 180000,
(PID.TID 0000.0001) > vwindperiod       = 2635200.0,
(PID.TID 0000.0001) >#
(PID.TID 0000.0001) > swfluxstartdate1  = 19781216,
(PID.TID 0000.0001) > swfluxstartdate2  = 180000,
(PID.TID 0000.0001) > swfluxperiod      = 2635200.0,
(PID.TID 0000.0001) >#
(PID.TID 0000.0001) > lwfluxstartdate1  = 19781216,
(PID.TID 0000.0001) > lwfluxstartdate2  = 180000,
(PID.TID 0000.0001) > lwfluxperiod      = 2635200.0,
(PID.TID 0000.0001) >#
(PID.TID 0000.0001) > swdownstartdate1  = 19781216,
(PID.TID 0000.0001) > swdownstartdate2  = 180000,
(PID.TID 0000.0001) > swdownperiod      = 2635200.0,
(PID.TID 0000.0001) >#
(PID.TID 0000.0001) > lwdownstartdate1  = 19781216,
(PID.TID 0000.0001) > lwdownstartdate2  = 180000,
(PID.TID 0000.0001) > lwdownperiod      = 2635200.0,
(PID.TID 0000.0001) >#
(PID.TID 0000.0001) > climsststartdate1  = 19781216,
(PID.TID 0000.0001) > climsststartdate2  = 180000,
(PID.TID 0000.0001) > climsstperiod      = 2635200.0,
(PID.TID 0000.0001) > climsstTauRelax    = 0.0,
(PID.TID 0000.0001) >#
(PID.TID 0000.0001) > climsssstartdate1  = 19781216,
(PID.TID 0000.0001) > climsssstartdate2  = 180000,
(PID.TID 0000.0001) > climsssperiod      = 2635200.0,
(PID.TID 0000.0001) > climsssTauRelax    = 4142330.0,
(PID.TID 0000.0001) >#
(PID.TID 0000.0001) > hfluxfile         = ' ',
(PID.TID 0000.0001) > sfluxfile         = ' ',
(PID.TID 0000.0001) > ustressfile       = ' ',
(PID.TID 0000.0001) > vstressfile       = ' ',
(PID.TID 0000.0001) > atempfile         = 'tair.labsea1979',
(PID.TID 0000.0001) > aqhfile           = 'qa.labsea1979',
(PID.TID 0000.0001) > uwindfile         = 'u10m.labsea1979',
(PID.TID 0000.0001) > vwindfile         = 'v10m.labsea1979',
(PID.TID 0000.0001) >#evapfile          = 'evap.labsea1979',
(PID.TID 0000.0001) > precipfile        = 'prate.labsea1979',
(PID.TID 0000.0001) > lwfluxfile        = ' ',
(PID.TID 0000.0001) > swfluxfile        = ' ',
(PID.TID 0000.0001) > lwdownfile        = 'flo.labsea1979',
(PID.TID 0000.0001) > swdownfile        = 'fsh.labsea1979',
(PID.TID 0000.0001) > runoffFile        = ' '
(PID.TID 0000.0001) > climsstfile       = ' ',
(PID.TID 0000.0001) > climsssfile       = 'SSS_monthly.labsea1979',
(PID.TID 0000.0001) >#
(PID.TID 0000.0001) > /
(PID.TID 0000.0001) >
(PID.TID 0000.0001) ># *********************
(PID.TID 0000.0001) > &EXF_NML_03
(PID.TID 0000.0001) > /
(PID.TID 0000.0001) >
(PID.TID 0000.0001) ># *********************
(PID.TID 0000.0001) > &EXF_NML_04
(PID.TID 0000.0001) > /
(PID.TID 0000.0001) 
(PID.TID 0000.0001) EXF_READPARMS: reading EXF_NML_01
(PID.TID 0000.0001) EXF_READPARMS: reading EXF_NML_02
(PID.TID 0000.0001) EXF_READPARMS: reading EXF_NML_03
(PID.TID 0000.0001) EXF_READPARMS: finished reading data.exf
(PID.TID 0000.0001)  KPP_READPARMS: opening data.kpp
(PID.TID 0000.0001)  OPEN_COPY_DATA_FILE: opening file data.kpp
(PID.TID 0000.0001) // =======================================================
(PID.TID 0000.0001) // Parameter file "data.kpp"
(PID.TID 0000.0001) // =======================================================
(PID.TID 0000.0001) ># KPP parameters
(PID.TID 0000.0001) > &KPP_PARM01
(PID.TID 0000.0001) > KPPmixingMaps   = .FALSE.,
(PID.TID 0000.0001) > KPPwriteState   = .TRUE.,
(PID.TID 0000.0001) > KPP_ghatUseTotalDiffus=.TRUE.,
(PID.TID 0000.0001) > /
(PID.TID 0000.0001) 
(PID.TID 0000.0001)  KPP_READPARMS ; starts to read KPP_PARM01
(PID.TID 0000.0001)  KPP_READPARMS ; read KPP_PARM01 : OK
(PID.TID 0000.0001)  KPP_READPARMS: finished reading data.kpp
(PID.TID 0000.0001)  GM_READPARMS: opening data.gmredi
(PID.TID 0000.0001)  OPEN_COPY_DATA_FILE: opening file data.gmredi
(PID.TID 0000.0001) // =======================================================
(PID.TID 0000.0001) // Parameter file "data.gmredi"
(PID.TID 0000.0001) // =======================================================
(PID.TID 0000.0001) ># GM+Redi package parameters:
(PID.TID 0000.0001) >#     GM_Small_Number  :: epsilon used in computing the slope
(PID.TID 0000.0001) >#     GM_slopeSqCutoff :: slope^2 cut-off value
(PID.TID 0000.0001) >
(PID.TID 0000.0001) >#-from MOM :
(PID.TID 0000.0001) ># GM_background_K: 	G & Mc.W  diffusion coefficient
(PID.TID 0000.0001) ># GM_maxSlope    :	max slope of isopycnals
(PID.TID 0000.0001) ># GM_Scrit       :	transition for scaling diffusion coefficient
(PID.TID 0000.0001) ># GM_Sd          :	half width scaling for diffusion coefficient
(PID.TID 0000.0001) ># GM_taper_scheme:	slope clipping or one of the tapering schemes
(PID.TID 0000.0001) ># GM_Kmin_horiz  :	horizontal diffusion minimum value
(PID.TID 0000.0001) >
(PID.TID 0000.0001) >#-Option parameters (needs to "define" options in GMREDI_OPTIONS.h")
(PID.TID 0000.0001) ># GM_isopycK     :	isopycnal diffusion coefficient (default=GM_background_K)
(PID.TID 0000.0001) ># GM_AdvForm     :	turn on GM Advective form       (default=Skew flux form)
(PID.TID 0000.0001) >
(PID.TID 0000.0001) > &GM_PARM01
(PID.TID 0000.0001) >  GM_Small_Number  = 1.D-20,
(PID.TID 0000.0001) >  GM_slopeSqCutoff = 1.D+08,
(PID.TID 0000.0001) >  GM_AdvForm         = .FALSE.,
(PID.TID 0000.0001) >#  GM_isopycK         = 1.1D+3,
(PID.TID 0000.0001) >#  GM_background_K    = 0.9D+3,
(PID.TID 0000.0001) >  GM_background_K    = 1.D+3,
(PID.TID 0000.0001) >  GM_taper_scheme    = 'dm95',
(PID.TID 0000.0001) >  GM_maxSlope        = 1.D-2,
(PID.TID 0000.0001) >  GM_Kmin_horiz      = 50.,
(PID.TID 0000.0001) >  GM_Scrit           = 4.D-3,
(PID.TID 0000.0001) >  GM_Sd              = 1.D-3,
(PID.TID 0000.0001) >#  GM_Visbeck_alpha   = 1.5D-2,
(PID.TID 0000.0001) >  GM_Visbeck_alpha   = 0.,
(PID.TID 0000.0001) >  GM_Visbeck_length  = 2.D+5,
(PID.TID 0000.0001) >  GM_Visbeck_depth   = 1.D+3,
(PID.TID 0000.0001) >  GM_Visbeck_maxval_K= 2.5D+3,
(PID.TID 0000.0001) > /
(PID.TID 0000.0001) >
(PID.TID 0000.0001) >
(PID.TID 0000.0001) 
(PID.TID 0000.0001)  GM_READPARMS: finished reading data.gmredi
(PID.TID 0000.0001)  DWNSLP_READPARMS: opening data.down_slope
(PID.TID 0000.0001)  OPEN_COPY_DATA_FILE: opening file data.down_slope
(PID.TID 0000.0001) // =======================================================
(PID.TID 0000.0001) // Parameter file "data.down_slope"
(PID.TID 0000.0001) // =======================================================
(PID.TID 0000.0001) ># DOWN_SLOPE package parameters (lines beginning "#" are comments):
(PID.TID 0000.0001) >#   DWNSLP_slope  :: fixed slope (=0 => use the local slope)
(PID.TID 0000.0001) >#   DWNSLP_rec_mu :: reciprol friction parameter (unit = time scale [s])
(PID.TID 0000.0001) >#         used to compute the flow: U=dy*dz*(slope * g/mu * dRho / rho0)
(PID.TID 0000.0001) >#   dwnslp_drFlow :: max. thickness [m] of the effective downsloping flow layer
(PID.TID 0000.0001) > &DWNSLP_PARM01
(PID.TID 0000.0001) >  DWNSLP_slope = 5.E-3,
(PID.TID 0000.0001) >  DWNSLP_rec_mu= 1.E+4,
(PID.TID 0000.0001) >  DWNSLP_drFlow= 30.,
(PID.TID 0000.0001) ># temp_useDWNSLP=.FALSE.,
(PID.TID 0000.0001) ># salt_useDWNSLP=.FALSE.,
(PID.TID 0000.0001) > /
(PID.TID 0000.0001) 
(PID.TID 0000.0001)  DWNSLP_READPARMS: finished reading data.downslp
(PID.TID 0000.0001) DWNSLP_slope =   /* DOWNSLP fixed slope (=0 => use local slope) */
(PID.TID 0000.0001)                 5.000000000000000E-03
(PID.TID 0000.0001)     ;
(PID.TID 0000.0001) DWNSLP_rec_mu =   /* DOWNSLP recip. friction parameter (time, s ) */
(PID.TID 0000.0001)                 1.000000000000000E+04
(PID.TID 0000.0001)     ;
(PID.TID 0000.0001) DWNSLP_drFlow =   /* DOWNSLP effective layer thickness ( m ) */
(PID.TID 0000.0001)                 3.000000000000000E+01
(PID.TID 0000.0001)     ;
(PID.TID 0000.0001) 
(PID.TID 0000.0001)  SEAICE_READPARMS: opening data.seaice
(PID.TID 0000.0001)  OPEN_COPY_DATA_FILE: opening file data.seaice
(PID.TID 0000.0001) // =======================================================
(PID.TID 0000.0001) // Parameter file "data.seaice"
(PID.TID 0000.0001) // =======================================================
(PID.TID 0000.0001) ># SEAICE parameters
(PID.TID 0000.0001) > &SEAICE_PARM01
(PID.TID 0000.0001) >      SEAICE_initialHEFF = 1.0,
(PID.TID 0000.0001) >      SEAICE_deltaTtherm = 3600.,
(PID.TID 0000.0001) >      SEAICE_deltaTdyn   = 3600.,
(PID.TID 0000.0001) >      SEAICEuseDYNAMICS  =.TRUE.,
(PID.TID 0000.0001) >#-- According to Martin, SEAICE_clipVelocities is not recommended
(PID.TID 0000.0001) >#     SEAICE_clipVelocities=.TRUE.,
(PID.TID 0000.0001) >      SEAICEadvSalt      =.FALSE.,
(PID.TID 0000.0001) >#-- above: to reproduce old results
(PID.TID 0000.0001) >      LSR_ERROR          = 1.E-6,
(PID.TID 0000.0001) >###      SEAICE_deltaTevp   = 60,
(PID.TID 0000.0001) >      SEAICE_EPS         = 1.E-8,
(PID.TID 0000.0001) >      SEAICE_multDim     = 7,
(PID.TID 0000.0001) >#- to reproduce old results with former #defined SEAICE_SOLVE4TEMP_LEGACY code
(PID.TID 0000.0001) >  useMaykutSatVapPoly = .TRUE.,
(PID.TID 0000.0001) >  postSolvTempIter  =  0,
(PID.TID 0000.0001) >#- paramaters from SEAICE_GROWTH_LEGACY branch
(PID.TID 0000.0001) >      SEAICE_doOpenWaterGrowth=.FALSE.,
(PID.TID 0000.0001) >      SEAICE_doOpenWaterMelt=.FALSE.,
(PID.TID 0000.0001) >      SEAICE_areaGainFormula=2,
(PID.TID 0000.0001) >      SEAICE_areaLossFormula=3,
(PID.TID 0000.0001) >#
(PID.TID 0000.0001) >      SEAICE_saltFrac    = 0.3,
(PID.TID 0000.0001) >      SEAICE_tempFrz0    = -1.96,
(PID.TID 0000.0001) >      SEAICE_dTempFrz_dS = 0.,
(PID.TID 0000.0001) >      SEAICE_availHeatFrac = 0.8,
(PID.TID 0000.0001) >      SEAICEdiffKhArea   = 200.,
(PID.TID 0000.0001) >      SEAICEwriteState   = .TRUE.,
(PID.TID 0000.0001) >#     SEAICE_tave_mnc    = .FALSE.,
(PID.TID 0000.0001) >#     SEAICE_dump_mnc    = .FALSE.,
(PID.TID 0000.0001) >#     SEAICE_mon_mnc     = .FALSE.,
(PID.TID 0000.0001) ># old defaults
(PID.TID 0000.0001) > SEAICEadvScheme       = 2,
(PID.TID 0000.0001) > SEAICEscaleSurfStress = .FALSE.,
(PID.TID 0000.0001) > SEAICEaddSnowMass     = .FALSE.,
(PID.TID 0000.0001) > SEAICE_useMultDimSnow = .FALSE.,
(PID.TID 0000.0001) > SEAICEetaZmethod = 0,
(PID.TID 0000.0001) > SEAICE_Olx       = 0,
(PID.TID 0000.0001) > SEAICE_Oly       = 0,
(PID.TID 0000.0001) > SEAICE_drag      = 0.002,
(PID.TID 0000.0001) > SEAICE_waterDrag = 0.005355404089581304,
(PID.TID 0000.0001) > /
(PID.TID 0000.0001) >
(PID.TID 0000.0001) > &SEAICE_PARM02
(PID.TID 0000.0001) ># currently COST_ICE_TEST is undefined in SEAICE_OPTIONS.h,
(PID.TID 0000.0001) ># so that none of these parameters are used and the cost function
(PID.TID 0000.0001) ># contribution by sea ice is zero (f_ice = 0.)
(PID.TID 0000.0001) >  mult_ice   = 1.,
(PID.TID 0000.0001) ># choose which seaice cost term you want
(PID.TID 0000.0001) >  cost_ice_flag = 1,
(PID.TID 0000.0001) ># the following timings are obsolete;
(PID.TID 0000.0001) ># replaced by lastinterval
(PID.TID 0000.0001) > costIceStart1        = 20000101,
(PID.TID 0000.0001) > costIceStart2        = 00000,
(PID.TID 0000.0001) > costIceEnd1        = 20000201,
(PID.TID 0000.0001) > costIceEnd2        = 00000,
(PID.TID 0000.0001) > /
(PID.TID 0000.0001) >
(PID.TID 0000.0001) > &SEAICE_PARM03
(PID.TID 0000.0001) > /
(PID.TID 0000.0001) 
(PID.TID 0000.0001)  SEAICE_READPARMS: finished reading data.seaice
(PID.TID 0000.0001) AUTODIFF_READPARMS: opening data.autodiff
(PID.TID 0000.0001)  OPEN_COPY_DATA_FILE: opening file data.autodiff
(PID.TID 0000.0001) // =======================================================
(PID.TID 0000.0001) // Parameter file "data.autodiff"
(PID.TID 0000.0001) // =======================================================
(PID.TID 0000.0001) ># =========================
(PID.TID 0000.0001) ># pkg AUTODIFF parameters :
(PID.TID 0000.0001) ># =========================
(PID.TID 0000.0001) >#  inAdExact :: get an exact adjoint (no approximation) (def=.True.)
(PID.TID 0000.0001) >#
(PID.TID 0000.0001) > &AUTODIFF_PARM01
(PID.TID 0000.0001) ># inAdExact = .FALSE.,
(PID.TID 0000.0001) ># useKPPinAdMode = .FALSE.,
(PID.TID 0000.0001) ># useGMRediInAdMode = .FALSE.,
(PID.TID 0000.0001) > /
(PID.TID 0000.0001) 
(PID.TID 0000.0001) AUTODIFF_READPARMS: finished reading data.autodiff
(PID.TID 0000.0001) // ===================================
(PID.TID 0000.0001) // AUTODIFF parameters :
(PID.TID 0000.0001) // ===================================
(PID.TID 0000.0001) inAdExact = /* get an exact adjoint (no approximation) */
(PID.TID 0000.0001)                   T
(PID.TID 0000.0001)     ;
(PID.TID 0000.0001) useApproxAdvectionInAdMode = /* approximate AD-advection */
(PID.TID 0000.0001)                   F
(PID.TID 0000.0001)     ;
(PID.TID 0000.0001) cg2dFullAdjoint = /* use full hand written cg2d adjoint (no approximation) */
(PID.TID 0000.0001)                   F
(PID.TID 0000.0001)     ;
(PID.TID 0000.0001) useKPPinAdMode = /* use KPP in adjoint mode */
(PID.TID 0000.0001)                   T
(PID.TID 0000.0001)     ;
(PID.TID 0000.0001) useGMRediInAdMode = /* use GMRedi in adjoint mode */
(PID.TID 0000.0001)                   T
(PID.TID 0000.0001)     ;
(PID.TID 0000.0001) useSEAICEinAdMode = /* use SEAICE in adjoint mode */
(PID.TID 0000.0001)                   T
(PID.TID 0000.0001)     ;
(PID.TID 0000.0001) useGGL90inAdMode = /* use GGL90 in adjoint mode */
(PID.TID 0000.0001)                   F
(PID.TID 0000.0001)     ;
(PID.TID 0000.0001) useSALT_PLUMEinAdMode = /* use SALT_PLUME in adjoint mode */
(PID.TID 0000.0001)                   F
(PID.TID 0000.0001)     ;
(PID.TID 0000.0001) SEAICEuseDYNAMICSswitchInAd = /* switch On/Off SEAICE Dyn in AD mode */
(PID.TID 0000.0001)                   F
(PID.TID 0000.0001)     ;
(PID.TID 0000.0001) SEAICEuseFREEDRIFTswitchInAd= /* switch On/Off Free-Drift in AD mode */
(PID.TID 0000.0001)                   F
(PID.TID 0000.0001)     ;
(PID.TID 0000.0001) SEAICEapproxLevInAd = /* -1:SEAICE_FAKE, >0:other adjoint approximation */
(PID.TID 0000.0001)                       0
(PID.TID 0000.0001)     ;
(PID.TID 0000.0001) dumpAdVarExch = /* control adexch before dumpinp */
(PID.TID 0000.0001)                       2
(PID.TID 0000.0001)     ;
(PID.TID 0000.0001) mon_AdVarExch = /* control adexch before monitor */
(PID.TID 0000.0001)                       2
(PID.TID 0000.0001)     ;
(PID.TID 0000.0001) viscFacInFw = /* viscosity factor for forward model */
(PID.TID 0000.0001)                 1.000000000000000E+00
(PID.TID 0000.0001)     ;
(PID.TID 0000.0001) viscFacInAd = /* viscosity factor for adjoint */
(PID.TID 0000.0001)                 1.000000000000000E+00
(PID.TID 0000.0001)     ;
(PID.TID 0000.0001) SIregFacInAd = /* sea ice factor for adjoint model */
(PID.TID 0000.0001)                 1.234567000000000E+05
(PID.TID 0000.0001)     ;
(PID.TID 0000.0001) SIregFacInFw = /* sea ice factor for forward model */
(PID.TID 0000.0001)                 1.234567000000000E+05
(PID.TID 0000.0001)     ;
(PID.TID 0000.0001) 
(PID.TID 0000.0001) OPTIM_READPARMS: opening data.optim
(PID.TID 0000.0001)  OPEN_COPY_DATA_FILE: opening file data.optim
(PID.TID 0000.0001) // =======================================================
(PID.TID 0000.0001) // Parameter file "data.optim"
(PID.TID 0000.0001) // =======================================================
(PID.TID 0000.0001) >#
(PID.TID 0000.0001) ># ********************************
(PID.TID 0000.0001) ># Off-line optimization parameters
(PID.TID 0000.0001) ># ********************************
(PID.TID 0000.0001) > &OPTIM
(PID.TID 0000.0001) > optimcycle=1,
(PID.TID 0000.0001) > /
(PID.TID 0000.0001) 
(PID.TID 0000.0001) OPTIM_READPARMS: finished reading data.optim
(PID.TID 0000.0001) CTRL_READPARMS: opening data.ctrl
(PID.TID 0000.0001)  OPEN_COPY_DATA_FILE: opening file data.ctrl
(PID.TID 0000.0001) // =======================================================
(PID.TID 0000.0001) // Parameter file "data.ctrl"
(PID.TID 0000.0001) // =======================================================
(PID.TID 0000.0001) >#
(PID.TID 0000.0001) >#
(PID.TID 0000.0001) ># *********************
(PID.TID 0000.0001) ># ECCO controlvariables
(PID.TID 0000.0001) ># *********************
(PID.TID 0000.0001) > &CTRL_NML
(PID.TID 0000.0001) ># write control variables into a separate directory
(PID.TID 0000.0001) > ctrlDir = './ctrl_variables',
(PID.TID 0000.0001) > doInitXX = .FALSE.,
(PID.TID 0000.0001) > doMainPack = .FALSE.,
(PID.TID 0000.0001) > doMainUnpack = .FALSE.,
(PID.TID 0000.0001) > ctrlDir = ' ',
(PID.TID 0000.0001) > /
(PID.TID 0000.0001) >#
(PID.TID 0000.0001) ># *********************
(PID.TID 0000.0001) ># names for ctrl_pack/unpack
(PID.TID 0000.0001) ># *********************
(PID.TID 0000.0001) > &CTRL_PACKNAMES
(PID.TID 0000.0001) > /
(PID.TID 0000.0001) >#
(PID.TID 0000.0001) ># *********************
(PID.TID 0000.0001) ># names for CTRL_GENARR, CTRL_GENTIM
(PID.TID 0000.0001) ># *********************
(PID.TID 0000.0001) > &CTRL_NML_GENARR
(PID.TID 0000.0001) ># xx_genarr3d_file(1)       = 'xx_theta',
(PID.TID 0000.0001) ># xx_genarr3d_weight(1)     = 'ones_64b.bin',
(PID.TID 0000.0001) ># xx_genarr3d_bounds(1:5,1) = -2.,-1.9,39.,40.,5.,
(PID.TID 0000.0001) >##mult_genarr3d(1)          = 1.0,
(PID.TID 0000.0001) >##
(PID.TID 0000.0001) ># xx_genarr3d_file(2)       = 'xx_salt',
(PID.TID 0000.0001) ># xx_genarr3d_weight(2)     = 'ones_64b.bin',
(PID.TID 0000.0001) ># xx_genarr3d_bounds(1:5,2) = 29.,29.5,40.5,41.,5.,
(PID.TID 0000.0001) >##mult_genarr3d(2)          = 1.0,
(PID.TID 0000.0001) >##
(PID.TID 0000.0001) ># xx_genarr2d_file(1)       = 'xx_siarea',
(PID.TID 0000.0001) ># xx_genarr2d_weight(1)     = 'ones_64b.bin',
(PID.TID 0000.0001) >##xx_genarr2d_bounds(1:5,1) = 0.,0.,1.,1.,0.,
(PID.TID 0000.0001) >##mult_genarr2d(1)          = 1.0,
(PID.TID 0000.0001) >##
(PID.TID 0000.0001) ># xx_genarr2d_file(2)       = 'xx_siheff',
(PID.TID 0000.0001) ># xx_genarr2d_weight(2)     = 'ones_64b.bin',
(PID.TID 0000.0001) >##xx_genarr2d_bounds(1:5,2) = 0.,0.,1.,1.,0.,
(PID.TID 0000.0001) >##mult_genarr2d(2)          = 1.0,
(PID.TID 0000.0001) >#
(PID.TID 0000.0001) > xx_gentim2d_file(1)       = 'xx_atemp',
(PID.TID 0000.0001) > xx_gentim2d_weight(1)     = 'ones_64b.bin',
(PID.TID 0000.0001) > xx_gentim2d_startdate1(1) = 19790101,
(PID.TID 0000.0001) > xx_gentim2d_startdate2(1) = 000000,
(PID.TID 0000.0001) > xx_gentim2d_period(1)     = 3600.0,
(PID.TID 0000.0001) > xx_gentim2d_preproc(1,1)  ='noscaling',
(PID.TID 0000.0001) > mult_gentim2d(1)          = 0.0,
(PID.TID 0000.0001) ># xx_gentim2d_period(1)     = 864000.0,
(PID.TID 0000.0001) >#mult_gentim2d(9)          = 1.0,
(PID.TID 0000.0001) >#
(PID.TID 0000.0001) ># xx_gentim2d_file(2)       = 'xx_aqh',
(PID.TID 0000.0001) ># xx_gentim2d_weight(2)     = 'ones_64b.bin',
(PID.TID 0000.0001) ># xx_gentim2d_startdate1(2) = 19790101,
(PID.TID 0000.0001) ># xx_gentim2d_startdate2(2) = 000000,
(PID.TID 0000.0001) ># xx_gentim2d_period(2)     = 864000.0,
(PID.TID 0000.0001) >##mult_gentim2d(9)          = 1.0,
(PID.TID 0000.0001) >##
(PID.TID 0000.0001) ># xx_gentim2d_file(3)       = 'xx_precip',
(PID.TID 0000.0001) ># xx_gentim2d_weight(3)     = 'ones_64b.bin',
(PID.TID 0000.0001) ># xx_gentim2d_startdate1(3) = 19790101,
(PID.TID 0000.0001) ># xx_gentim2d_startdate2(3) = 000000,
(PID.TID 0000.0001) ># xx_gentim2d_period(3)     = 864000.0,
(PID.TID 0000.0001) >##mult_gentim2d(9)          = 1.0,
(PID.TID 0000.0001) >##
(PID.TID 0000.0001) ># xx_gentim2d_file(4)       = 'xx_snowprecip',
(PID.TID 0000.0001) ># xx_gentim2d_weight(4)     = 'ones_64b.bin',
(PID.TID 0000.0001) ># xx_gentim2d_startdate1(4) = 19790101,
(PID.TID 0000.0001) ># xx_gentim2d_startdate2(4) = 000000,
(PID.TID 0000.0001) ># xx_gentim2d_period(4)     = 864000.0,
(PID.TID 0000.0001) >##mult_gentim2d(9)          = 1.0,
(PID.TID 0000.0001) >##
(PID.TID 0000.0001) ># xx_gentim2d_file(5)       = 'xx_swdown',
(PID.TID 0000.0001) ># xx_gentim2d_weight(5)     = 'ones_64b.bin',
(PID.TID 0000.0001) ># xx_gentim2d_startdate1(5) = 19790101,
(PID.TID 0000.0001) ># xx_gentim2d_startdate2(5) = 000000,
(PID.TID 0000.0001) ># xx_gentim2d_period(5)     = 864000.0,
(PID.TID 0000.0001) >##mult_gentim2d(9)          = 1.0,
(PID.TID 0000.0001) >##
(PID.TID 0000.0001) ># xx_gentim2d_file(6)       = 'xx_lwdown',
(PID.TID 0000.0001) ># xx_gentim2d_weight(6)     = 'ones_64b.bin',
(PID.TID 0000.0001) ># xx_gentim2d_startdate1(6) = 19790101,
(PID.TID 0000.0001) ># xx_gentim2d_startdate2(6) = 000000,
(PID.TID 0000.0001) ># xx_gentim2d_period(6)     = 864000.0,
(PID.TID 0000.0001) >##mult_gentim2d(9)          = 1.0,
(PID.TID 0000.0001) >##
(PID.TID 0000.0001) ># xx_gentim2d_file(7)       = 'xx_uwind',
(PID.TID 0000.0001) ># xx_gentim2d_weight(7)     = 'ones_64b.bin',
(PID.TID 0000.0001) ># xx_gentim2d_startdate1(7) = 19790101,
(PID.TID 0000.0001) ># xx_gentim2d_startdate2(7) = 000000,
(PID.TID 0000.0001) ># xx_gentim2d_period(7)     = 864000.0,
(PID.TID 0000.0001) >##mult_gentim2d(9)          = 1.0,
(PID.TID 0000.0001) >##
(PID.TID 0000.0001) ># xx_gentim2d_file(8)       = 'xx_vwind',
(PID.TID 0000.0001) ># xx_gentim2d_weight(8)     = 'ones_64b.bin',
(PID.TID 0000.0001) ># xx_gentim2d_startdate1(8) = 19790101,
(PID.TID 0000.0001) ># xx_gentim2d_startdate2(8) = 000000,
(PID.TID 0000.0001) ># xx_gentim2d_period(8)     = 864000.0,
(PID.TID 0000.0001) >##mult_gentim2d(9)          = 1.0,
(PID.TID 0000.0001) >##
(PID.TID 0000.0001) ># xx_gentim2d_file(9)       = 'xx_apressure',
(PID.TID 0000.0001) ># xx_gentim2d_weight(9)     = 'ones_64b.bin',
(PID.TID 0000.0001) ># xx_gentim2d_startdate1(9) = 19790101,
(PID.TID 0000.0001) ># xx_gentim2d_startdate2(9) = 000000,
(PID.TID 0000.0001) ># xx_gentim2d_period(9)     = 864000.0,
(PID.TID 0000.0001) >##mult_gentim2d(9)          = 1.0,
(PID.TID 0000.0001) >#
(PID.TID 0000.0001) > /
(PID.TID 0000.0001) 
(PID.TID 0000.0001) CTRL_READPARMS: finished reading data.ctrl
(PID.TID 0000.0001) read-write ctrl files from current run directory
(PID.TID 0000.0001) COST_READPARMS: opening data.cost
(PID.TID 0000.0001)  OPEN_COPY_DATA_FILE: opening file data.cost
(PID.TID 0000.0001) // =======================================================
(PID.TID 0000.0001) // Parameter file "data.cost"
(PID.TID 0000.0001) // =======================================================
(PID.TID 0000.0001) >#
(PID.TID 0000.0001) >#
(PID.TID 0000.0001) ># ******************
(PID.TID 0000.0001) ># cost function
(PID.TID 0000.0001) ># ******************
(PID.TID 0000.0001) > &COST_NML
(PID.TID 0000.0001) > /
(PID.TID 0000.0001) 
(PID.TID 0000.0001) COST_READPARMS: finished reading data.cost
(PID.TID 0000.0001) GRDCHK_READPARMS: opening data.grdchk
(PID.TID 0000.0001)  OPEN_COPY_DATA_FILE: opening file data.grdchk
(PID.TID 0000.0001) // =======================================================
(PID.TID 0000.0001) // Parameter file "data.grdchk"
(PID.TID 0000.0001) // =======================================================
(PID.TID 0000.0001) >
(PID.TID 0000.0001) ># *******************
(PID.TID 0000.0001) ># ECCO gradient check
(PID.TID 0000.0001) ># *******************
(PID.TID 0000.0001) > &GRDCHK_NML
(PID.TID 0000.0001) > grdchk_eps       = 1.d-4,
(PID.TID 0000.0001) ># nbeg             = 4,
(PID.TID 0000.0001) > iGloPos          = 4,
(PID.TID 0000.0001) > jGloPos          = 8,
(PID.TID 0000.0001) > kGloPos          = 1,
(PID.TID 0000.0001) > nstep            = 1,
(PID.TID 0000.0001) > nend             = 4,
(PID.TID 0000.0001) > grdchkvarindex   = 301,
(PID.TID 0000.0001) > /
(PID.TID 0000.0001) 
(PID.TID 0000.0001) GRDCHK_READPARMS: finished reading data.grdchk
(PID.TID 0000.0001) 
(PID.TID 0000.0001) // =======================================================
(PID.TID 0000.0001) // Gradient check configuration  >>> START <<<
(PID.TID 0000.0001) // =======================================================
(PID.TID 0000.0001) 
(PID.TID 0000.0001)   grdchkvarindex :                        301
(PID.TID 0000.0001)   eps:                              0.100E-03
(PID.TID 0000.0001)   First location:                           0
(PID.TID 0000.0001)   Last location:                            4
(PID.TID 0000.0001)   Increment:                                1
(PID.TID 0000.0001)   grdchkWhichProc:                          0
(PID.TID 0000.0001)   iLocTile =       1  ,    jLocTile =       1
(PID.TID 0000.0001) 
(PID.TID 0000.0001) // =======================================================
(PID.TID 0000.0001) // Gradient check configuration  >>> END <<<
(PID.TID 0000.0001) // =======================================================
(PID.TID 0000.0001) 
(PID.TID 0000.0001) ECCO_READPARMS: opening data.ecco
(PID.TID 0000.0001)  OPEN_COPY_DATA_FILE: opening file data.ecco
(PID.TID 0000.0001) // =======================================================
(PID.TID 0000.0001) // Parameter file "data.ecco"
(PID.TID 0000.0001) // =======================================================
(PID.TID 0000.0001) ># ******************
(PID.TID 0000.0001) ># ECCO cost function
(PID.TID 0000.0001) ># ******************
(PID.TID 0000.0001) > &ECCO_COST_NML
(PID.TID 0000.0001) > cost_iprec  = 64,
(PID.TID 0000.0001) > /
(PID.TID 0000.0001) >
(PID.TID 0000.0001) > &ECCO_GENCOST_NML
(PID.TID 0000.0001) ># gencost_avgperiod(1) = 'month',
(PID.TID 0000.0001) ># gencost_barfile(1) = 'm_theta_month',
(PID.TID 0000.0001) ># gencost_datafile(1) = 'labsea_Lev.ptmp',
(PID.TID 0000.0001) ># gencost_errfile(1) = 'sigma_theta.bin',
(PID.TID 0000.0001) ># gencost_name(1) = 'theta',
(PID.TID 0000.0001) ># gencost_spmin(1) = -1.8,
(PID.TID 0000.0001) ># gencost_spmax(1) = 40.,
(PID.TID 0000.0001) ># gencost_spzero(1) = 0.,
(PID.TID 0000.0001) ># gencost_outputlevel(1)=1,
(PID.TID 0000.0001) ># mult_gencost(1) = 1.,
(PID.TID 0000.0001) >##
(PID.TID 0000.0001) ># gencost_avgperiod(2) = 'month',
(PID.TID 0000.0001) ># gencost_barfile(2) = 'm_salt_month',
(PID.TID 0000.0001) ># gencost_datafile(2) = 'labsea_Lev.salt',
(PID.TID 0000.0001) ># gencost_errfile(2) = 'sigma_salt.bin',
(PID.TID 0000.0001) ># gencost_name(2) = 'salt',
(PID.TID 0000.0001) ># gencost_spmin(2) = 25.,
(PID.TID 0000.0001) ># gencost_spmax(2) = 40.,
(PID.TID 0000.0001) ># gencost_spzero(2) = 0.,
(PID.TID 0000.0001) ># gencost_outputlevel(2)=1,
(PID.TID 0000.0001) ># mult_gencost(2) = 1.,
(PID.TID 0000.0001) >#
(PID.TID 0000.0001) ># gencost_avgperiod(3) = 'month',
(PID.TID 0000.0001) ># gencost_barfile(3) = 'm_sst_month',
(PID.TID 0000.0001) > gencost_avgperiod(3) = 'step',
(PID.TID 0000.0001) > gencost_barfile(3) = 'm_sst_step',
(PID.TID 0000.0001) ># gencost_datafile(3) = 'labsea_SST_fields',
(PID.TID 0000.0001) >### note that even when we run 4 timestep,
(PID.TID 0000.0001) >#the way pickup works is that we have to count
(PID.TID 0000.0001) >#also the pickup, so pickup=5, run 6,7,8,9
(PID.TID 0000.0001) >#means we have to provide data of 5 records
(PID.TID 0000.0001) >#for 4 timesteps
(PID.TID 0000.0001) > gencost_datafile(3) = 'labsea_SST_fields_t5',
(PID.TID 0000.0001) > gencost_errfile(3) = 'sigma_sst.bin',
(PID.TID 0000.0001) > gencost_name(3) = 'sst',
(PID.TID 0000.0001) > gencost_startdate1(3) = 19790101,
(PID.TID 0000.0001) > gencost_startdate2(3) = 00000,
(PID.TID 0000.0001) > gencost_spmin(3) = -1.8,
(PID.TID 0000.0001) > gencost_spmax(3) = 40.,
(PID.TID 0000.0001) > gencost_spzero(3) = -9999.0,
(PID.TID 0000.0001) ># gencost_spzero(3) = 0.,
(PID.TID 0000.0001) > gencost_outputlevel(3)=1,
(PID.TID 0000.0001) > mult_gencost(3) = 1.,
(PID.TID 0000.0001) >#
(PID.TID 0000.0001) ># gencost_avgperiod(4) = 'month',
(PID.TID 0000.0001) ># gencost_barfile(4) = 'm_eta_month',
(PID.TID 0000.0001) ># gencost_preproc(1,4) = 'mean',
(PID.TID 0000.0001) ># gencost_preproc(2,4) = 'offset',
(PID.TID 0000.0001) ># gencost_preproc(3,4) = 'mindepth',
(PID.TID 0000.0001) ># gencost_preproc_r(3,4) = -200.,
(PID.TID 0000.0001) ># gencost_datafile(4) = 'labsea_TP_mean_meters',
(PID.TID 0000.0001) ># gencost_errfile(4) = 'ones_64b.bin',
(PID.TID 0000.0001) ># gencost_name(4) = 'mdt',
(PID.TID 0000.0001) ># gencost_startdate1(4) = 19790101,
(PID.TID 0000.0001) ># gencost_startdate2(4) = 000000,
(PID.TID 0000.0001) ># gencost_spmin(4) = -4.,
(PID.TID 0000.0001) ># gencost_spmax(4) =  4.,
(PID.TID 0000.0001) ># gencost_spzero(4) = -9999.0,
(PID.TID 0000.0001) ># gencost_outputlevel(4)=5,
(PID.TID 0000.0001) ># mult_gencost(4) = 1.,
(PID.TID 0000.0001) > /
(PID.TID 0000.0001) 
(PID.TID 0000.0001) ECCO_READPARMS: finished reading #1: ecco_cost_nml
(PID.TID 0000.0001) ECCO_READPARMS: finished reading #2: ecco_gencost_nml
(PID.TID 0000.0001) ECCO_READPARMS: done
(PID.TID 0000.0001)  DIAGNOSTICS_READPARMS: opening data.diagnostics
(PID.TID 0000.0001)  OPEN_COPY_DATA_FILE: opening file data.diagnostics
(PID.TID 0000.0001) // =======================================================
(PID.TID 0000.0001) // Parameter file "data.diagnostics"
(PID.TID 0000.0001) // =======================================================
(PID.TID 0000.0001) ># Diagnostic Package Choices
(PID.TID 0000.0001) >#-----------------
(PID.TID 0000.0001) ># for each output-stream:
(PID.TID 0000.0001) >#  filename(n) : prefix of the output file name (only 8.c long) for outp.stream n
(PID.TID 0000.0001) >#  frequency(n):< 0 : write snap-shot output every multiple of |frequency| (iter)
(PID.TID 0000.0001) >#               > 0 : write time-average output every multiple of frequency (iter)
(PID.TID 0000.0001) >#  levels(:,n) : list of levels to write to file (Notes: declared as REAL)
(PID.TID 0000.0001) >#                 when this entry is missing, select all common levels of this list
(PID.TID 0000.0001) >#  fields(:,n) : list of diagnostics fields (8.c) (see "available_diagnostics" file
(PID.TID 0000.0001) >#                 for the list of all available diag. in this particular config)
(PID.TID 0000.0001) >#--------------------------------------------------------------------
(PID.TID 0000.0001) >#
(PID.TID 0000.0001) > &diagnostics_list
(PID.TID 0000.0001) >#
(PID.TID 0000.0001) >   dumpatlast = .TRUE.,
(PID.TID 0000.0001) >#####---------------------------------------------------------------
(PID.TID 0000.0001) >###---- standard diagnostics:
(PID.TID 0000.0001) >#######---
(PID.TID 0000.0001) >  frequency(11) = 3600.0,
(PID.TID 0000.0001) >   fields(1:16,11) = 'ETAN    ','SIarea  ','SIheff  ','SIhsnow ',
(PID.TID 0000.0001) >                 'DETADT2 ','PHIBOT  ','sIceLoad',
(PID.TID 0000.0001) >                 'MXLDEPTH',
(PID.TID 0000.0001) >                 'SIatmFW ','oceQnet ','oceFWflx',
(PID.TID 0000.0001) >                 'oceTAUX ','oceTAUY ',
(PID.TID 0000.0001) >                 'SIuice  ','SIvice  ','ETANSQ  ',
(PID.TID 0000.0001) >   filename(11) = 'diags/state_2d_set1',
(PID.TID 0000.0001) >###---
(PID.TID 0000.0001) >  frequency(12) = 3600.0,
(PID.TID 0000.0001) >   fields(1:2,12) = 'THETA   ','SALT    ',
(PID.TID 0000.0001) >   filename(12) = 'diags/state_3d_set1',
(PID.TID 0000.0001) >##---
(PID.TID 0000.0001) >  frequency(13) = 3600.0,
(PID.TID 0000.0001) >   fields(1:2,13) = 'UVELMASS','VVELMASS',
(PID.TID 0000.0001) >   filename(13) = 'diags/trsp_3d_set1',
(PID.TID 0000.0001) >##---
(PID.TID 0000.0001) >  frequency(16) = 3600.0,
(PID.TID 0000.0001) >   fields(1:18,16) ='EXFpreci','EXFevap ','EXFroff ','EXFempmr',
(PID.TID 0000.0001) >                 'EXFswdn ','EXFlwdn ','EXFswnet','EXFlwnet','EXFqnet ',
(PID.TID 0000.0001) >                 'EXFatemp','EXFaqh  ','EXFtaux ','EXFtauy ',
(PID.TID 0000.0001) >                 'EXFuwind','EXFvwind','EXFpress','EXFhs   ','EXFhl   ',
(PID.TID 0000.0001) >   filename(16) = 'diags/exf_zflux_set1',
(PID.TID 0000.0001) > /
(PID.TID 0000.0001) >#
(PID.TID 0000.0001) >#
(PID.TID 0000.0001) ># Parameter for Diagnostics of per level statistics:
(PID.TID 0000.0001) >#-----------------
(PID.TID 0000.0001) ># for each output-stream:
(PID.TID 0000.0001) >#  stat_fname(n) : prefix of the output file name (only 8.c long) for outp.stream n
(PID.TID 0000.0001) >#  stat_freq(n):< 0 : write snap-shot output every |stat_freq| seconds
(PID.TID 0000.0001) >#               > 0 : write time-average output every stat_freq seconds
(PID.TID 0000.0001) >#  stat_phase(n)    : write at time = stat_phase + multiple of |stat_freq|
(PID.TID 0000.0001) >#  stat_region(:,n) : list of "regions" (default: 1 region only=global)
(PID.TID 0000.0001) >#  stat_fields(:,n) : list of diagnostics fields (8.c) (see "available_diagnostics.log"
(PID.TID 0000.0001) >#                 file for the list of all available diag. in this particular config)
(PID.TID 0000.0001) >#-----------------
(PID.TID 0000.0001) > &DIAG_STATIS_PARMS
(PID.TID 0000.0001) ># diagSt_regMaskFile='basin_masks_eccollc_90x50.bin',
(PID.TID 0000.0001) ># nSetRegMskFile=1,
(PID.TID 0000.0001) ># set_regMask(1)= 1,  1,  1,  1,  1,  1,  1,  1,  1,
(PID.TID 0000.0001) >#                 1,  1,  1,  1,  1,  1,  1,  1
(PID.TID 0000.0001) ># val_regMask(1)= 1., 2., 3., 4., 5., 6., 7., 8., 9.,
(PID.TID 0000.0001) >#                10.,11.,12.,13.,14.,15.,16.,17.
(PID.TID 0000.0001) >##---
(PID.TID 0000.0001) ># stat_fields(1,1)= 'ETAN    ','ETANSQ  ','DETADT2 ',
(PID.TID 0000.0001) >#                   'UVEL    ','VVEL    ','WVEL    ',
(PID.TID 0000.0001) >#                   'THETA   ','SALT    ',
(PID.TID 0000.0001) >#    stat_fname(1)= 'dynStDiag',
(PID.TID 0000.0001) >#     stat_freq(1)= 3153600.,
(PID.TID 0000.0001) ># stat_region(1,1)=  1, 2, 3, 4, 5, 6, 7, 8, 9,
(PID.TID 0000.0001) >#                   10,11,12,13,14,15,16,17
(PID.TID 0000.0001) >##---
(PID.TID 0000.0001) ># stat_fields(1,2)= 'oceTAUX ','oceTAUY ',
(PID.TID 0000.0001) >#                   'surForcT','surForcS','TFLUX   ','SFLUX   ',
(PID.TID 0000.0001) >#                   'oceQnet ','oceSflux','oceFWflx',
(PID.TID 0000.0001) >#    stat_fname(2)= 'surfStDiag',
(PID.TID 0000.0001) >#     stat_freq(2)= 3153600.,
(PID.TID 0000.0001) ># stat_region(1,2)=  1, 2, 3, 4, 5, 6, 7, 8, 9,
(PID.TID 0000.0001) >#                   10,11,12,13,14,15,16,17
(PID.TID 0000.0001) > /
(PID.TID 0000.0001) 
(PID.TID 0000.0001) S/R DIAGNOSTICS_READPARMS, read namelist "diagnostics_list": start
(PID.TID 0000.0001) S/R DIAGNOSTICS_READPARMS, read namelist "diagnostics_list": OK
(PID.TID 0000.0001) S/R DIAGNOSTICS_READPARMS, read namelist "DIAG_STATIS_PARMS": start
(PID.TID 0000.0001) S/R DIAGNOSTICS_READPARMS, read namelist "DIAG_STATIS_PARMS": OK
(PID.TID 0000.0001)  DIAGNOSTICS_READPARMS: global parameter summary:
(PID.TID 0000.0001)  dumpAtLast = /* always write time-ave diags at the end */
(PID.TID 0000.0001)                   T
(PID.TID 0000.0001)     ;
(PID.TID 0000.0001)  diag_mnc =   /* write NetCDF output files */
(PID.TID 0000.0001)                   F
(PID.TID 0000.0001)     ;
(PID.TID 0000.0001)  useMissingValue = /* put MissingValue where mask = 0 */
(PID.TID 0000.0001)                   F
(PID.TID 0000.0001)     ;
(PID.TID 0000.0001)  diagCG_maxIters = /* max number of iters in diag_cg2d */
(PID.TID 0000.0001)                    1000
(PID.TID 0000.0001)     ;
(PID.TID 0000.0001)  diagCG_resTarget = /* residual target for diag_cg2d */
(PID.TID 0000.0001)                 1.000000000000000E-13
(PID.TID 0000.0001)     ;
(PID.TID 0000.0001)  diagCG_pcOffDFac = /* preconditioner off-diagonal factor */
(PID.TID 0000.0001)                 9.611687812379854E-01
(PID.TID 0000.0001)     ;
(PID.TID 0000.0001) -----------------------------------------------------
(PID.TID 0000.0001)  DIAGNOSTICS_READPARMS: active diagnostics summary:
(PID.TID 0000.0001) -----------------------------------------------------
(PID.TID 0000.0001) Creating Output Stream: diags/state_2d_set1
(PID.TID 0000.0001) Output Frequency:       3600.000000 ; Phase:           0.000000
(PID.TID 0000.0001)  Averaging Freq.:       3600.000000 , Phase:           0.000000 , Cycle:   1
(PID.TID 0000.0001)  missing value: -9.990000000000E+02
(PID.TID 0000.0001)  Levels:    will be set later
(PID.TID 0000.0001)  Fields:    ETAN     SIarea   SIheff   SIhsnow  DETADT2  PHIBOT   sIceLoad MXLDEPTH SIatmFW  oceQnet
(PID.TID 0000.0001)  Fields:    oceFWflx oceTAUX  oceTAUY  SIuice   SIvice   ETANSQ
(PID.TID 0000.0001) Creating Output Stream: diags/state_3d_set1
(PID.TID 0000.0001) Output Frequency:       3600.000000 ; Phase:           0.000000
(PID.TID 0000.0001)  Averaging Freq.:       3600.000000 , Phase:           0.000000 , Cycle:   1
(PID.TID 0000.0001)  missing value: -9.990000000000E+02
(PID.TID 0000.0001)  Levels:    will be set later
(PID.TID 0000.0001)  Fields:    THETA    SALT
(PID.TID 0000.0001) Creating Output Stream: diags/trsp_3d_set1
(PID.TID 0000.0001) Output Frequency:       3600.000000 ; Phase:           0.000000
(PID.TID 0000.0001)  Averaging Freq.:       3600.000000 , Phase:           0.000000 , Cycle:   1
(PID.TID 0000.0001)  missing value: -9.990000000000E+02
(PID.TID 0000.0001)  Levels:    will be set later
(PID.TID 0000.0001)  Fields:    UVELMASS VVELMASS
(PID.TID 0000.0001) Creating Output Stream: diags/exf_zflux_set1
(PID.TID 0000.0001) Output Frequency:       3600.000000 ; Phase:           0.000000
(PID.TID 0000.0001)  Averaging Freq.:       3600.000000 , Phase:           0.000000 , Cycle:   1
(PID.TID 0000.0001)  missing value: -9.990000000000E+02
(PID.TID 0000.0001)  Levels:    will be set later
(PID.TID 0000.0001)  Fields:    EXFpreci EXFevap  EXFroff  EXFempmr EXFswdn  EXFlwdn  EXFswnet EXFlwnet EXFqnet  EXFatemp
(PID.TID 0000.0001)  Fields:    EXFaqh   EXFtaux  EXFtauy  EXFuwind EXFvwind EXFpress EXFhs    EXFhl
(PID.TID 0000.0001) -----------------------------------------------------
(PID.TID 0000.0001)  DIAGNOSTICS_READPARMS: statistics diags. summary:
(PID.TID 0000.0001) -----------------------------------------------------
(PID.TID 0000.0001) 
(PID.TID 0000.0001) SET_PARMS: done
(PID.TID 0000.0001) Enter INI_VERTICAL_GRID: setInterFDr=    T ; setCenterDr=    F
(PID.TID 0000.0001) %MON XC_max                       =   3.1900000000000E+02
(PID.TID 0000.0001) %MON XC_min                       =   2.8100000000000E+02
(PID.TID 0000.0001) %MON XC_mean                      =   3.0000000000000E+02
(PID.TID 0000.0001) %MON XC_sd                        =   1.1532562594671E+01
(PID.TID 0000.0001) %MON XG_max                       =   3.1800000000000E+02
(PID.TID 0000.0001) %MON XG_min                       =   2.8000000000000E+02
(PID.TID 0000.0001) %MON XG_mean                      =   2.9900000000000E+02
(PID.TID 0000.0001) %MON XG_sd                        =   1.1532562594671E+01
(PID.TID 0000.0001) %MON DXC_max                      =   1.5166951523772E+05
(PID.TID 0000.0001) %MON DXC_min                      =   5.0026831972764E+04
(PID.TID 0000.0001) %MON DXC_mean                     =   1.0305926321463E+05
(PID.TID 0000.0001) %MON DXC_sd                       =   3.1375805318756E+04
(PID.TID 0000.0001) %MON DXF_max                      =   1.5166951523772E+05
(PID.TID 0000.0001) %MON DXF_min                      =   5.0026831972764E+04
(PID.TID 0000.0001) %MON DXF_mean                     =   1.0305926321463E+05
(PID.TID 0000.0001) %MON DXF_sd                       =   3.1375805318756E+04
(PID.TID 0000.0001) %MON DXG_max                      =   1.5448497309243E+05
(PID.TID 0000.0001) %MON DXG_min                      =   5.3800974869835E+04
(PID.TID 0000.0001) %MON DXG_mean                     =   1.0642630187324E+05
(PID.TID 0000.0001) %MON DXG_sd                       =   3.1081829200899E+04
(PID.TID 0000.0001) %MON DXV_max                      =   1.5448497309243E+05
(PID.TID 0000.0001) %MON DXV_min                      =   5.3800974869835E+04
(PID.TID 0000.0001) %MON DXV_mean                     =   1.0642630187324E+05
(PID.TID 0000.0001) %MON DXV_sd                       =   3.1081829200899E+04
(PID.TID 0000.0001) %MON YC_max                       =   7.7000000000000E+01
(PID.TID 0000.0001) %MON YC_min                       =   4.7000000000000E+01
(PID.TID 0000.0001) %MON YC_mean                      =   6.2000000000000E+01
(PID.TID 0000.0001) %MON YC_sd                        =   9.2195444572929E+00
(PID.TID 0000.0001) %MON YG_max                       =   7.6000000000000E+01
(PID.TID 0000.0001) %MON YG_min                       =   4.6000000000000E+01
(PID.TID 0000.0001) %MON YG_mean                      =   6.1000000000000E+01
(PID.TID 0000.0001) %MON YG_sd                        =   9.2195444572929E+00
(PID.TID 0000.0001) %MON DYC_max                      =   2.2238985328912E+05
(PID.TID 0000.0001) %MON DYC_min                      =   2.2238985328912E+05
(PID.TID 0000.0001) %MON DYC_mean                     =   2.2238985328912E+05
(PID.TID 0000.0001) %MON DYC_sd                       =   6.1118043959141E-10
(PID.TID 0000.0001) %MON DYF_max                      =   2.2238985328912E+05
(PID.TID 0000.0001) %MON DYF_min                      =   2.2238985328912E+05
(PID.TID 0000.0001) %MON DYF_mean                     =   2.2238985328912E+05
(PID.TID 0000.0001) %MON DYF_sd                       =   6.1118043959141E-10
(PID.TID 0000.0001) %MON DYG_max                      =   2.2238985328912E+05
(PID.TID 0000.0001) %MON DYG_min                      =   2.2238985328912E+05
(PID.TID 0000.0001) %MON DYG_mean                     =   2.2238985328912E+05
(PID.TID 0000.0001) %MON DYG_sd                       =   6.1118043959141E-10
(PID.TID 0000.0001) %MON DYU_max                      =   2.2238985328912E+05
(PID.TID 0000.0001) %MON DYU_min                      =   2.2238985328912E+05
(PID.TID 0000.0001) %MON DYU_mean                     =   2.2238985328912E+05
(PID.TID 0000.0001) %MON DYU_sd                       =   6.1118043959141E-10
(PID.TID 0000.0001) %MON RA_max                       =   3.3728048822756E+10
(PID.TID 0000.0001) %MON RA_min                       =   1.1124894996734E+10
(PID.TID 0000.0001) %MON RA_mean                      =   2.2918170839356E+10
(PID.TID 0000.0001) %MON RA_sd                        =   6.9773064942263E+09
(PID.TID 0000.0001) %MON RAW_max                      =   3.3728048822756E+10
(PID.TID 0000.0001) %MON RAW_min                      =   1.1124894996734E+10
(PID.TID 0000.0001) %MON RAW_mean                     =   2.2918170839356E+10
(PID.TID 0000.0001) %MON RAW_sd                       =   6.9773064942263E+09
(PID.TID 0000.0001) %MON RAS_max                      =   3.4354146294179E+10
(PID.TID 0000.0001) %MON RAS_min                      =   1.1964183470077E+10
(PID.TID 0000.0001) %MON RAS_mean                     =   2.3666928057229E+10
(PID.TID 0000.0001) %MON RAS_sd                       =   6.9119325076329E+09
(PID.TID 0000.0001) %MON RAZ_max                      =   3.4354146294179E+10
(PID.TID 0000.0001) %MON RAZ_min                      =   1.1964183470077E+10
(PID.TID 0000.0001) %MON RAZ_mean                     =   2.3666928057229E+10
(PID.TID 0000.0001) %MON RAZ_sd                       =   6.9119325076329E+09
(PID.TID 0000.0001) %MON AngleCS_max                  =   1.0000000000000E+00
(PID.TID 0000.0001) %MON AngleCS_min                  =   1.0000000000000E+00
(PID.TID 0000.0001) %MON AngleCS_mean                 =   1.0000000000000E+00
(PID.TID 0000.0001) %MON AngleCS_sd                   =   0.0000000000000E+00
(PID.TID 0000.0001) %MON AngleSN_max                  =   0.0000000000000E+00
(PID.TID 0000.0001) %MON AngleSN_min                  =   0.0000000000000E+00
(PID.TID 0000.0001) %MON AngleSN_mean                 =   0.0000000000000E+00
(PID.TID 0000.0001) %MON AngleSN_sd                   =   0.0000000000000E+00
(PID.TID 0000.0001)  MDS_WRITEVEC_LOC: open file: RhoRef.data
(PID.TID 0000.0001)  MDS_WR_REC_RL: iRec,Dim =         1         23
(PID.TID 0000.0001)  MDS_READ_FIELD: opening global file: bathy.labsea1979
(PID.TID 0000.0001) // =======================================================
(PID.TID 0000.0001) // Field Bottom depths (ini_depths)
(PID.TID 0000.0001) // CMIN =         -4.200000000000000E+03
(PID.TID 0000.0001) // CMAX =         -5.500000000000000E+01
(PID.TID 0000.0001) // CINT =          1.535185185185185E+02
(PID.TID 0000.0001) // SYMBOLS (CMIN->CMAX): -abcdefghijklmnopqrstuvwxyz+
(PID.TID 0000.0001) //                  0.0: .
(PID.TID 0000.0001) // RANGE I (Lo:Hi:Step):(    -3:    24:     1)
(PID.TID 0000.0001) // RANGE J (Lo:Hi:Step):(    20:    -3:    -1)
(PID.TID 0000.0001) // RANGE K (Lo:Hi:Step):(   1:   1:   1)
(PID.TID 0000.0001) // =======================================================
(PID.TID 0000.0001) K =   1
(PID.TID 0000.0001) //                I=6       I=16
(PID.TID 0000.0001) // |--J--|321012345|789012345|78901234
(PID.TID 0000.0001) //     20 cccg............zzmgcccg....
(PID.TID 0000.0001) //     19 gcc-..........+.zzxmgcc-....
(PID.TID 0000.0001) //     18 mjc-.......+zzz..zzsmjc-....
(PID.TID 0000.0001) //     17 wwc-........++z+++z+wwc-....
(PID.TID 0000.0001) //     16 .....zyyz................zyy
(PID.TID 0000.0001) //     15 ....yxwwuspxyxz.........yxww
(PID.TID 0000.0001) //     14 .....+wwspppsxzz.........+ww
(PID.TID 0000.0001) //     13 ........zwsppsyz............
(PID.TID 0000.0001) //     12 ..........+ypswzz+..........
(PID.TID 0000.0001) //     11 ............+wwy+...........
(PID.TID 0000.0001) //     10 ...........zzzywy+..........
(PID.TID 0000.0001) //      9 ...z.......+zxsmmm+....z....
(PID.TID 0000.0001) //      8 z..s.....zzzxumjjjjuz..s....
(PID.TID 0000.0001) //      7 jpmj......z.+zmjggggjpmj....
(PID.TID 0000.0001) //      6 gggg.........zxmjggggggg....
(PID.TID 0000.0001) //      5 gggg..........zzsjgggggg....
(PID.TID 0000.0001) //      4 cccg............zzmgcccg....
(PID.TID 0000.0001) //      3 gcc-..........+.zzxmgcc-....
(PID.TID 0000.0001) //      2 mjc-.......+zzz..zzsmjc-....
(PID.TID 0000.0001) //      1 wwc-........++z+++z+wwc-....
(PID.TID 0000.0001) //      0 .....zyyz................zyy
(PID.TID 0000.0001) //     -1 ....yxwwuspxyxz.........yxww
(PID.TID 0000.0001) //     -2 .....+wwspppsxzz.........+ww
(PID.TID 0000.0001) //     -3 ........zwsppsyz............
(PID.TID 0000.0001) // =======================================================
(PID.TID 0000.0001) // END OF FIELD                                          =
(PID.TID 0000.0001) // =======================================================
(PID.TID 0000.0001) 
(PID.TID 0000.0001) // =======================================================
(PID.TID 0000.0001) // Field Surface reference r-position (ini_depths)
(PID.TID 0000.0001) // CMIN =          1.000000000000000E+32
(PID.TID 0000.0001) // CMAX =         -1.000000000000000E+32
(PID.TID 0000.0001) // CINT =          0.000000000000000E+00
(PID.TID 0000.0001) // SYMBOLS (CMIN->CMAX): -abcdefghijklmnopqrstuvwxyz+
(PID.TID 0000.0001) //                  0.0: .
(PID.TID 0000.0001) // RANGE I (Lo:Hi:Step):(    -3:    24:     1)
(PID.TID 0000.0001) // RANGE J (Lo:Hi:Step):(    20:    -3:    -1)
(PID.TID 0000.0001) // RANGE K (Lo:Hi:Step):(   1:   1:   1)
(PID.TID 0000.0001) // =======================================================
(PID.TID 0000.0001) // =======================================================
(PID.TID 0000.0001) // END OF FIELD                                          =
(PID.TID 0000.0001) // =======================================================
(PID.TID 0000.0001) 
(PID.TID 0000.0001) // =======================================================
(PID.TID 0000.0001) // Field Model R_low (ini_masks_etc)
(PID.TID 0000.0001) // CMIN =         -4.200000000000000E+03
(PID.TID 0000.0001) // CMAX =         -5.500000000000000E+01
(PID.TID 0000.0001) // CINT =          1.535185185185185E+02
(PID.TID 0000.0001) // SYMBOLS (CMIN->CMAX): -abcdefghijklmnopqrstuvwxyz+
(PID.TID 0000.0001) //                  0.0: .
(PID.TID 0000.0001) // RANGE I (Lo:Hi:Step):(    -3:    24:     1)
(PID.TID 0000.0001) // RANGE J (Lo:Hi:Step):(    20:    -3:    -1)
(PID.TID 0000.0001) // RANGE K (Lo:Hi:Step):(   1:   1:   1)
(PID.TID 0000.0001) // =======================================================
(PID.TID 0000.0001) K =   1
(PID.TID 0000.0001) //                I=6       I=16
(PID.TID 0000.0001) // |--J--|321012345|789012345|78901234
(PID.TID 0000.0001) //     20 cccg............zzmgcccg....
(PID.TID 0000.0001) //     19 gcc-..........+.zzxmgcc-....
(PID.TID 0000.0001) //     18 mjc-.......+zzz..zzsmjc-....
(PID.TID 0000.0001) //     17 wwc-........++z+++z+wwc-....
(PID.TID 0000.0001) //     16 .....zyyz................zyy
(PID.TID 0000.0001) //     15 ....yxwwuspxyxz.........yxww
(PID.TID 0000.0001) //     14 .....+wwspppsxzz.........+ww
(PID.TID 0000.0001) //     13 ........zwsppsyz............
(PID.TID 0000.0001) //     12 ..........+ypswzz+..........
(PID.TID 0000.0001) //     11 ............+wwy+...........
(PID.TID 0000.0001) //     10 ...........zzzywy+..........
(PID.TID 0000.0001) //      9 ...z.......+zxsmmm+....z....
(PID.TID 0000.0001) //      8 z..s.....zzzxumjjjjuz..s....
(PID.TID 0000.0001) //      7 jpmj......z.+zmjggggjpmj....
(PID.TID 0000.0001) //      6 gggg.........zxmjggggggg....
(PID.TID 0000.0001) //      5 gggg..........zzsjgggggg....
(PID.TID 0000.0001) //      4 cccg............zzmgcccg....
(PID.TID 0000.0001) //      3 gcc-..........+.zzxmgcc-....
(PID.TID 0000.0001) //      2 mjc-.......+zzz..zzsmjc-....
(PID.TID 0000.0001) //      1 wwc-........++z+++z+wwc-....
(PID.TID 0000.0001) //      0 .....zyyz................zyy
(PID.TID 0000.0001) //     -1 ....yxwwuspxyxz.........yxww
(PID.TID 0000.0001) //     -2 .....+wwspppsxzz.........+ww
(PID.TID 0000.0001) //     -3 ........zwsppsyz............
(PID.TID 0000.0001) // =======================================================
(PID.TID 0000.0001) // END OF FIELD                                          =
(PID.TID 0000.0001) // =======================================================
(PID.TID 0000.0001) 
(PID.TID 0000.0001) // =======================================================
(PID.TID 0000.0001) // Field Model Ro_surf (ini_masks_etc)
(PID.TID 0000.0001) // CMIN =          1.000000000000000E+32
(PID.TID 0000.0001) // CMAX =         -1.000000000000000E+32
(PID.TID 0000.0001) // CINT =          0.000000000000000E+00
(PID.TID 0000.0001) // SYMBOLS (CMIN->CMAX): -abcdefghijklmnopqrstuvwxyz+
(PID.TID 0000.0001) //                  0.0: .
(PID.TID 0000.0001) // RANGE I (Lo:Hi:Step):(    -3:    24:     1)
(PID.TID 0000.0001) // RANGE J (Lo:Hi:Step):(    20:    -3:    -1)
(PID.TID 0000.0001) // RANGE K (Lo:Hi:Step):(   1:   1:   1)
(PID.TID 0000.0001) // =======================================================
(PID.TID 0000.0001) // =======================================================
(PID.TID 0000.0001) // END OF FIELD                                          =
(PID.TID 0000.0001) // =======================================================
(PID.TID 0000.0001) 
(PID.TID 0000.0001) // =======================================================
(PID.TID 0000.0001) // Field hFacC at iteration          0
(PID.TID 0000.0001) // CMIN =          1.000000000000000E+00
(PID.TID 0000.0001) // CMAX =          1.000000000000000E+00
(PID.TID 0000.0001) // CINT =          0.000000000000000E+00
(PID.TID 0000.0001) // SYMBOLS (CMIN->CMAX): -abcdefghijklmnopqrstuvwxyz+
(PID.TID 0000.0001) //                  0.0: .
(PID.TID 0000.0001) // RANGE I (Lo:Hi:Step):(    -3:    24:     1)
(PID.TID 0000.0001) // RANGE J (Lo:Hi:Step):(    20:    -3:    -1)
(PID.TID 0000.0001) // RANGE K (Lo:Hi:Step):(   1:   1:   1)
(PID.TID 0000.0001) // =======================================================
(PID.TID 0000.0001) // =======================================================
(PID.TID 0000.0001) // END OF FIELD                                          =
(PID.TID 0000.0001) // =======================================================
(PID.TID 0000.0001) 
(PID.TID 0000.0001) // =======================================================
(PID.TID 0000.0001) // Field hFacW at iteration          0
(PID.TID 0000.0001) // CMIN =          1.000000000000000E+00
(PID.TID 0000.0001) // CMAX =          1.000000000000000E+00
(PID.TID 0000.0001) // CINT =          0.000000000000000E+00
(PID.TID 0000.0001) // SYMBOLS (CMIN->CMAX): -abcdefghijklmnopqrstuvwxyz+
(PID.TID 0000.0001) //                  0.0: .
(PID.TID 0000.0001) // RANGE I (Lo:Hi:Step):(    -3:    24:     1)
(PID.TID 0000.0001) // RANGE J (Lo:Hi:Step):(    20:    -3:    -1)
(PID.TID 0000.0001) // RANGE K (Lo:Hi:Step):(   1:   1:   1)
(PID.TID 0000.0001) // =======================================================
(PID.TID 0000.0001) // =======================================================
(PID.TID 0000.0001) // END OF FIELD                                          =
(PID.TID 0000.0001) // =======================================================
(PID.TID 0000.0001) 
(PID.TID 0000.0001) // =======================================================
(PID.TID 0000.0001) // Field hFacS at iteration          0
(PID.TID 0000.0001) // CMIN =          1.000000000000000E+00
(PID.TID 0000.0001) // CMAX =          1.000000000000000E+00
(PID.TID 0000.0001) // CINT =          0.000000000000000E+00
(PID.TID 0000.0001) // SYMBOLS (CMIN->CMAX): -abcdefghijklmnopqrstuvwxyz+
(PID.TID 0000.0001) //                  0.0: .
(PID.TID 0000.0001) // RANGE I (Lo:Hi:Step):(    -3:    24:     1)
(PID.TID 0000.0001) // RANGE J (Lo:Hi:Step):(    20:    -3:    -1)
(PID.TID 0000.0001) // RANGE K (Lo:Hi:Step):(   1:   1:   1)
(PID.TID 0000.0001) // =======================================================
(PID.TID 0000.0001) // =======================================================
(PID.TID 0000.0001) // END OF FIELD                                          =
(PID.TID 0000.0001) // =======================================================
(PID.TID 0000.0001) 
(PID.TID 0000.0001) 
(PID.TID 0000.0001) // =======================================================
(PID.TID 0000.0001) // Calendar configuration >>> START <<<
(PID.TID 0000.0001) // =======================================================
(PID.TID 0000.0001) 
(PID.TID 0000.0001) modelstart = /* Start time of the model integration [s] */
(PID.TID 0000.0001)                 1.800000000000000E+04
(PID.TID 0000.0001)     ;
(PID.TID 0000.0001) modelend  = /* End time of the model integration [s] */
(PID.TID 0000.0001)                 3.240000000000000E+04
(PID.TID 0000.0001)     ;
(PID.TID 0000.0001) modelStep = /* Time interval for a model forward step [s] */
(PID.TID 0000.0001)                 3.600000000000000E+03
(PID.TID 0000.0001)     ;
(PID.TID 0000.0001) usingGregorianCalendar= /* Calendar Type: Gregorian Calendar */
(PID.TID 0000.0001)                   T
(PID.TID 0000.0001)     ;
(PID.TID 0000.0001) usingJulianCalendar = /* Calendar Type: Julian Calendar */
(PID.TID 0000.0001)                   F
(PID.TID 0000.0001)     ;
(PID.TID 0000.0001) usingNoLeapYearCal  = /* Calendar Type: without Leap Year */
(PID.TID 0000.0001)                   F
(PID.TID 0000.0001)     ;
(PID.TID 0000.0001) usingModelCalendar  = /* Calendar Type: Model Calendar */
(PID.TID 0000.0001)                   F
(PID.TID 0000.0001)     ;
(PID.TID 0000.0001) modelStartDate YYYYMMDD = /* Model start date YYYY-MM-DD */
(PID.TID 0000.0001)                19790101
(PID.TID 0000.0001)     ;
(PID.TID 0000.0001)   modelStartDate HHMMSS = /* Model start date HH-MM-SS  */
(PID.TID 0000.0001)                   50000
(PID.TID 0000.0001)     ;
(PID.TID 0000.0001) modelEndDate   YYYYMMDD = /* Model end date YYYY-MM-DD */
(PID.TID 0000.0001)                19790101
(PID.TID 0000.0001)     ;
(PID.TID 0000.0001)   modelEndDate   HHMMSS = /* Model end date HH-MM-SS  */
(PID.TID 0000.0001)                   90000
(PID.TID 0000.0001)     ;
(PID.TID 0000.0001) intyears = /* Number of calendar years affected by the integration */
(PID.TID 0000.0001)                       1
(PID.TID 0000.0001)     ;
(PID.TID 0000.0001) intmonths= /* Number of calendar months affected by the integration */
(PID.TID 0000.0001)                       1
(PID.TID 0000.0001)     ;
(PID.TID 0000.0001) intdays = /* Number of calendar days affected by the integration */
(PID.TID 0000.0001)                       1
(PID.TID 0000.0001)     ;
(PID.TID 0000.0001) modelIter0 = /* Base timestep number  */
(PID.TID 0000.0001)                       5
(PID.TID 0000.0001)     ;
(PID.TID 0000.0001) modelIterEnd = /* Final timestep number  */
(PID.TID 0000.0001)                       9
(PID.TID 0000.0001)     ;
(PID.TID 0000.0001) modelIntSteps= /* Number of model timesteps  */
(PID.TID 0000.0001)                       4
(PID.TID 0000.0001)     ;
(PID.TID 0000.0001) 
(PID.TID 0000.0001) // =======================================================
(PID.TID 0000.0001) // Calendar configuration  >>> END <<<
(PID.TID 0000.0001) // =======================================================
(PID.TID 0000.0001) 
(PID.TID 0000.0001) GAD_INIT_FIXED: GAD_OlMinSize=  2  0  1
(PID.TID 0000.0001) 
(PID.TID 0000.0001) // ===================================
(PID.TID 0000.0001) // GAD parameters :
(PID.TID 0000.0001) // ===================================
(PID.TID 0000.0001) tempAdvScheme =   /* Temp. Horiz.Advection scheme selector */
(PID.TID 0000.0001)                      30
(PID.TID 0000.0001)     ;
(PID.TID 0000.0001) tempVertAdvScheme =   /* Temp. Vert. Advection scheme selector */
(PID.TID 0000.0001)                      30
(PID.TID 0000.0001)     ;
(PID.TID 0000.0001) tempMultiDimAdvec =   /* use Muti-Dim Advec method for Temp */
(PID.TID 0000.0001)                   T
(PID.TID 0000.0001)     ;
(PID.TID 0000.0001) tempSOM_Advection = /* use 2nd Order Moment Advection for Temp */
(PID.TID 0000.0001)                   F
(PID.TID 0000.0001)     ;
(PID.TID 0000.0001) AdamsBashforthGt = /* apply Adams-Bashforth extrapolation on Gt */
(PID.TID 0000.0001)                   F
(PID.TID 0000.0001)     ;
(PID.TID 0000.0001) AdamsBashforth_T = /* apply Adams-Bashforth extrapolation on Temp */
(PID.TID 0000.0001)                   F
(PID.TID 0000.0001)     ;
(PID.TID 0000.0001) saltAdvScheme =   /* Salt. Horiz.advection scheme selector */
(PID.TID 0000.0001)                      30
(PID.TID 0000.0001)     ;
(PID.TID 0000.0001) saltVertAdvScheme =   /* Salt. Vert. Advection scheme selector */
(PID.TID 0000.0001)                      30
(PID.TID 0000.0001)     ;
(PID.TID 0000.0001) saltMultiDimAdvec =   /* use Muti-Dim Advec method for Salt */
(PID.TID 0000.0001)                   T
(PID.TID 0000.0001)     ;
(PID.TID 0000.0001) saltSOM_Advection = /* use 2nd Order Moment Advection for Salt */
(PID.TID 0000.0001)                   F
(PID.TID 0000.0001)     ;
(PID.TID 0000.0001) AdamsBashforthGs = /* apply Adams-Bashforth extrapolation on Gs */
(PID.TID 0000.0001)                   F
(PID.TID 0000.0001)     ;
(PID.TID 0000.0001) AdamsBashforth_S = /* apply Adams-Bashforth extrapolation on Salt */
(PID.TID 0000.0001)                   F
(PID.TID 0000.0001)     ;
(PID.TID 0000.0001) // ===================================
(PID.TID 0000.0001) 
(PID.TID 0000.0001) // =======================================================
(PID.TID 0000.0001) // External forcing (EXF) configuration >>> START <<<
(PID.TID 0000.0001) // =======================================================
(PID.TID 0000.0001) 
(PID.TID 0000.0001)  EXF general parameters:
(PID.TID 0000.0001) 
(PID.TID 0000.0001) exf_iprec = /* exf file precision */
(PID.TID 0000.0001)                      32
(PID.TID 0000.0001)     ;
(PID.TID 0000.0001) useExfYearlyFields = /* add extension _YEAR to input file names */
(PID.TID 0000.0001)                   F
(PID.TID 0000.0001)     ;
(PID.TID 0000.0001) twoDigitYear = /* use 2-digit year extension */
(PID.TID 0000.0001)                   F
(PID.TID 0000.0001)     ;
(PID.TID 0000.0001) useExfCheckRange = /* check for fields range */
(PID.TID 0000.0001)                   T
(PID.TID 0000.0001)     ;
(PID.TID 0000.0001) diags_opOceWeighted = /* weight flux diags by open-ocean fraction */
(PID.TID 0000.0001)                   T
(PID.TID 0000.0001)     ;
(PID.TID 0000.0001) exf_debugLev = /* select EXF-debug printing level */
(PID.TID 0000.0001)                       4
(PID.TID 0000.0001)     ;
(PID.TID 0000.0001) exf_monFreq  = /* EXF monitor frequency [ s ] */
(PID.TID 0000.0001)                 1.000000000000000E+00
(PID.TID 0000.0001)     ;
(PID.TID 0000.0001) exf_adjMonSelect = /* select group of exf AD-variables to monitor */
(PID.TID 0000.0001)                       3
(PID.TID 0000.0001)     ;
(PID.TID 0000.0001) repeatPeriod = /* period for cycling forcing dataset [ s ] */
(PID.TID 0000.0001)                 3.162240000000000E+07
(PID.TID 0000.0001)     ;
(PID.TID 0000.0001) climTempFreeze= /* Minimum climatological temperature [deg.C] */
(PID.TID 0000.0001)                -1.900000000000000E+00
(PID.TID 0000.0001)     ;
(PID.TID 0000.0001) windStressMax = /* Maximum absolute windstress [ Pa ] */
(PID.TID 0000.0001)                 2.000000000000000E+00
(PID.TID 0000.0001)     ;
(PID.TID 0000.0001) stressIsOnCgrid = /* set u,v_stress on Arakawa C-grid */
(PID.TID 0000.0001)                   F
(PID.TID 0000.0001)     ;
(PID.TID 0000.0001) rotateStressOnAgrid = /* rotate u,v_stress on Arakawa A-grid */
(PID.TID 0000.0001)                   F
(PID.TID 0000.0001)     ;
(PID.TID 0000.0001) cen2kel = /* conversion of deg. Centigrade to Kelvin [K] */
(PID.TID 0000.0001)                 2.731500000000000E+02
(PID.TID 0000.0001)     ;
(PID.TID 0000.0001) gravity_mks= /* gravitational acceleration [m/s^2] */
(PID.TID 0000.0001)                 9.810000000000000E+00
(PID.TID 0000.0001)     ;
(PID.TID 0000.0001) atmrho =  /* mean atmospheric density [kg/m^3] */
(PID.TID 0000.0001)                 1.200000000000000E+00
(PID.TID 0000.0001)     ;
(PID.TID 0000.0001) atmcp =  /* mean atmospheric specific heat [J/kg/K] */
(PID.TID 0000.0001)                 1.005000000000000E+03
(PID.TID 0000.0001)     ;
(PID.TID 0000.0001) flamb =  /* latent heat of evaporation [J/kg] */
(PID.TID 0000.0001)                 2.500000000000000E+06
(PID.TID 0000.0001)     ;
(PID.TID 0000.0001) flami =  /* latent heat of pure-ice melting [J/kg] */
(PID.TID 0000.0001)                 3.340000000000000E+05
(PID.TID 0000.0001)     ;
(PID.TID 0000.0001) cvapor_fac = /* const. for Saturation calculation [?] */
(PID.TID 0000.0001)                 6.403800000000000E+05
(PID.TID 0000.0001)     ;
(PID.TID 0000.0001) cvapor_exp = /* const. for Saturation calculation [?] */
(PID.TID 0000.0001)                 5.107400000000000E+03
(PID.TID 0000.0001)     ;
(PID.TID 0000.0001) cvapor_fac_ice= /* const. for Saturation calculation [?] */
(PID.TID 0000.0001)                 1.163780000000000E+07
(PID.TID 0000.0001)     ;
(PID.TID 0000.0001) cvapor_exp_ice= /* const. for Saturation calculation [?] */
(PID.TID 0000.0001)                 5.897800000000000E+03
(PID.TID 0000.0001)     ;
(PID.TID 0000.0001) humid_fac = /* humidity coef. in virtual temp. [(kg/kg)^-1] */
(PID.TID 0000.0001)                 6.060000000000000E-01
(PID.TID 0000.0001)     ;
(PID.TID 0000.0001) gamma_blk = /* adiabatic lapse rate [?] */
(PID.TID 0000.0001)                 1.000000000000000E-02
(PID.TID 0000.0001)     ;
(PID.TID 0000.0001) saltsat = /* reduction of Qsat over salty water [-] */
(PID.TID 0000.0001)                 9.800000000000000E-01
(PID.TID 0000.0001)     ;
(PID.TID 0000.0001) noNegativeEvap = /* prevent negative Evaporation */
(PID.TID 0000.0001)                   F
(PID.TID 0000.0001)     ;
(PID.TID 0000.0001) sstExtrapol = /* extrapolation coeff from lev. 1 & 2 to surf [-] */
(PID.TID 0000.0001)                 0.000000000000000E+00
(PID.TID 0000.0001)     ;
(PID.TID 0000.0001) cDrag_1 = /* coef used in drag calculation [m/s] */
(PID.TID 0000.0001)                 2.700000000000000E-03
(PID.TID 0000.0001)     ;
(PID.TID 0000.0001) cDrag_2 = /* coef used in drag calculation [-] */
(PID.TID 0000.0001)                 1.420000000000000E-04
(PID.TID 0000.0001)     ;
(PID.TID 0000.0001) cDrag_3 = /* coef used in drag calculation [s/m] */
(PID.TID 0000.0001)                 7.640000000000000E-05
(PID.TID 0000.0001)     ;
(PID.TID 0000.0001) cDrag_8 = /* coef used in drag calculation [(s/m)^6] */
(PID.TID 0000.0001)                 1.234567000000000E+05
(PID.TID 0000.0001)     ;
(PID.TID 0000.0001) cDragMax = /* maximum drag (Large and Yeager, 2009) [-] */
(PID.TID 0000.0001)                 1.234567000000000E+05
(PID.TID 0000.0001)     ;
(PID.TID 0000.0001) umax = /* at maximum wind (Large and Yeager, 2009) [m/s] */
(PID.TID 0000.0001)                 1.234567000000000E+05
(PID.TID 0000.0001)     ;
(PID.TID 0000.0001) cStanton_1 = /* coef used in Stanton number calculation [-] */
(PID.TID 0000.0001)                 3.270000000000000E-02
(PID.TID 0000.0001)     ;
(PID.TID 0000.0001) cStanton_2 = /* coef used in Stanton number calculation [-] */
(PID.TID 0000.0001)                 1.800000000000000E-02
(PID.TID 0000.0001)     ;
(PID.TID 0000.0001) cDalton = /* Dalton number [-] */
(PID.TID 0000.0001)                 3.460000000000000E-02
(PID.TID 0000.0001)     ;
(PID.TID 0000.0001) exf_scal_BulkCdn= /* Drag coefficient scaling factor [-] */
(PID.TID 0000.0001)                 1.000000000000000E+00
(PID.TID 0000.0001)     ;
(PID.TID 0000.0001) zolmin = /* minimum stability parameter [?] */
(PID.TID 0000.0001)                -1.000000000000000E+02
(PID.TID 0000.0001)     ;
(PID.TID 0000.0001) psim_fac = /* coef used in turbulent fluxes calculation [-] */
(PID.TID 0000.0001)                 5.000000000000000E+00
(PID.TID 0000.0001)     ;
(PID.TID 0000.0001) zref =  /* reference height [ m ] */
(PID.TID 0000.0001)                 1.000000000000000E+01
(PID.TID 0000.0001)     ;
(PID.TID 0000.0001) hu =  /* height of mean wind [ m ] */
(PID.TID 0000.0001)                 1.000000000000000E+01
(PID.TID 0000.0001)     ;
(PID.TID 0000.0001) ht =  /* height of mean temperature [ m ] */
(PID.TID 0000.0001)                 2.000000000000000E+00
(PID.TID 0000.0001)     ;
(PID.TID 0000.0001) hq =  /* height of mean spec.humidity [ m ] */
(PID.TID 0000.0001)                 2.000000000000000E+00
(PID.TID 0000.0001)     ;
(PID.TID 0000.0001) uMin = /* minimum wind speed [m/s] */
(PID.TID 0000.0001)                 5.000000000000000E-01
(PID.TID 0000.0001)     ;
(PID.TID 0000.0001) useStabilityFct_overIce= /* transfert Coeffs over sea-ice depend on stability */
(PID.TID 0000.0001)                   F
(PID.TID 0000.0001)     ;
(PID.TID 0000.0001) exf_iceCd = /* drag coefficient over sea-ice (fixed) [-] */
(PID.TID 0000.0001)                 1.630000000000000E-03
(PID.TID 0000.0001)     ;
(PID.TID 0000.0001) exf_iceCe = /* transfert coeff. over sea-ice, for Evap (fixed) [-] */
(PID.TID 0000.0001)                 1.630000000000000E-03
(PID.TID 0000.0001)     ;
(PID.TID 0000.0001) exf_iceCh = /* transfert coeff. over sea-ice, Sens.Heat.(fixed)[-] */
(PID.TID 0000.0001)                 1.630000000000000E-03
(PID.TID 0000.0001)     ;
(PID.TID 0000.0001) exf_albedo =  /* Sea-water albedo [-] */
(PID.TID 0000.0001)                 1.000000000000000E-01
(PID.TID 0000.0001)     ;
(PID.TID 0000.0001) useExfZenAlbedo = /* Sea-water albedo varies with zenith angle */
(PID.TID 0000.0001)                   F
(PID.TID 0000.0001)     ;
(PID.TID 0000.0001) select_ZenAlbedo = /* Sea-water albedo computation method */
(PID.TID 0000.0001)                       0
(PID.TID 0000.0001)     ;
(PID.TID 0000.0001) useExfZenIncoming = /* compute incoming solar radiation */
(PID.TID 0000.0001)                   F
(PID.TID 0000.0001)     ;
(PID.TID 0000.0001) ocean_emissivity = /* longwave ocean-surface emissivity [-] */
(PID.TID 0000.0001)                 9.700176366843034E-01
(PID.TID 0000.0001)     ;
(PID.TID 0000.0001) ice_emissivity = /* longwave seaice emissivity [-] */
(PID.TID 0000.0001)                 9.500000000000000E-01
(PID.TID 0000.0001)     ;
(PID.TID 0000.0001) snow_emissivity = /* longwave snow  emissivity [-] */
(PID.TID 0000.0001)                 9.500000000000000E-01
(PID.TID 0000.0001)     ;
(PID.TID 0000.0001) 
(PID.TID 0000.0001)  EXF main CPP flags:
(PID.TID 0000.0001) 
(PID.TID 0000.0001) // USE_EXF_INTERPOLATION:          NOT defined
(PID.TID 0000.0001) // ALLOW_ATM_TEMP:                     defined
(PID.TID 0000.0001) // ALLOW_ATM_WIND (useAtmWind):        defined
(PID.TID 0000.0001) // ALLOW_DOWNWARD_RADIATION:           defined
(PID.TID 0000.0001) // ALLOW_BULKFORMULAE:                 defined
(PID.TID 0000.0001) 
(PID.TID 0000.0001)    Zonal wind forcing starts at                   -1317600.
(PID.TID 0000.0001)    Zonal wind forcing period is                    2635200.
(PID.TID 0000.0001)    Zonal wind forcing repeat-cycle is             31622400.
(PID.TID 0000.0001)    Zonal wind forcing is read from file:
(PID.TID 0000.0001)    >> u10m.labsea1979 <<
(PID.TID 0000.0001) 
(PID.TID 0000.0001)    Meridional wind forcing starts at              -1317600.
(PID.TID 0000.0001)    Meridional wind forcing period is               2635200.
(PID.TID 0000.0001)    Meridional wind forcing repeat-cycle is        31622400.
(PID.TID 0000.0001)    Meridional wind forcing is read from file:
(PID.TID 0000.0001)    >> v10m.labsea1979 <<
(PID.TID 0000.0001) 
(PID.TID 0000.0001)    Atmospheric temperature starts at              -1317600.
(PID.TID 0000.0001)    Atmospheric temperature period is               2635200.
(PID.TID 0000.0001)    Atmospheric temperature repeat-cycle is        31622400.
(PID.TID 0000.0001)    Atmospheric temperature is read from file:
(PID.TID 0000.0001)    >> tair.labsea1979 <<
(PID.TID 0000.0001) 
(PID.TID 0000.0001)    Atmospheric specific humidity starts at        -1317600.
(PID.TID 0000.0001)    Atmospheric specific humidity period is         2635200.
(PID.TID 0000.0001)    Atmospheric specific humidity rep-cycle is     31622400.
(PID.TID 0000.0001)    Atmospheric specific humidity is read from file:
(PID.TID 0000.0001)    >> qa.labsea1979 <<
(PID.TID 0000.0001) 
(PID.TID 0000.0001) // ALLOW_READ_TURBFLUXES:          NOT defined
(PID.TID 0000.0001) // EXF_READ_EVAP:                  NOT defined
(PID.TID 0000.0001) 
(PID.TID 0000.0001)    Precipitation data starts at                   -1317600.
(PID.TID 0000.0001)    Precipitation data period is                    2635200.
(PID.TID 0000.0001)    Precipitation data repeat-cycle is             31622400.
(PID.TID 0000.0001)    Precipitation data is read from file:
(PID.TID 0000.0001)    >> prate.labsea1979 <<
(PID.TID 0000.0001) 
(PID.TID 0000.0001) // ALLOW_RUNOFF:                       defined
(PID.TID 0000.0001) // ALLOW_RUNOFTEMP:                NOT defined
(PID.TID 0000.0001) // ALLOW_SALTFLX:                      defined
(PID.TID 0000.0001) 
(PID.TID 0000.0001)    Downward shortwave flux starts at              -1317600.
(PID.TID 0000.0001)    Downward shortwave flux period is               2635200.
(PID.TID 0000.0001)    Downward shortwave flux repeat-cycle is        31622400.
(PID.TID 0000.0001)    Downward shortwave flux is read from file:
(PID.TID 0000.0001)    >> fsh.labsea1979 <<
(PID.TID 0000.0001) 
(PID.TID 0000.0001)    Downward longwave flux starts at               -1317600.
(PID.TID 0000.0001)    Downward longwave flux period is                2635200.
(PID.TID 0000.0001)    Downward longwave flux repeat-cycle is         31622400.
(PID.TID 0000.0001)    Downward longwave flux is read from file:
(PID.TID 0000.0001)    >> flo.labsea1979 <<
(PID.TID 0000.0001) 
(PID.TID 0000.0001) // =======================================================
(PID.TID 0000.0001) // External forcing (EXF) climatology configuration :
(PID.TID 0000.0001) // =======================================================
(PID.TID 0000.0001) 
(PID.TID 0000.0001) // ALLOW_CLIMSST_RELAXATION:           defined
(PID.TID 0000.0001)    climsst relaxation is NOT used
(PID.TID 0000.0001) 
(PID.TID 0000.0001) // ALLOW_CLIMSSS_RELAXATION:           defined
(PID.TID 0000.0001)    Climatological SSS starts at                   -1317600.
(PID.TID 0000.0001)    Climatological SSS period is                    2635200.
(PID.TID 0000.0001)    Climatological SSS repeat-cycle is             31622400.
(PID.TID 0000.0001)    Climatological SSS is read from file:
(PID.TID 0000.0001)    >> SSS_monthly.labsea1979 <<
(PID.TID 0000.0001) 
(PID.TID 0000.0001) // =======================================================
(PID.TID 0000.0001) // External forcing (EXF) configuration  >>> END <<<
(PID.TID 0000.0001) // =======================================================
(PID.TID 0000.0001) 
(PID.TID 0000.0001) DWNSLP_INIT: DWNSLP_NbSite=   1   1     182
(PID.TID 0000.0001) etaday defined by gencost   0
(PID.TID 0000.0001)  MDS_WRITE_FIELD: it,rec,kS,kL,kH=       1     1   1   1   1 file=adsmrareabar.0000000001
(PID.TID 0000.0001)  MDS_WRITE_FIELD: it,rec,kS,kL,kH=       1     1   1   1   1 file=adsmrsstbar.0000000001
(PID.TID 0000.0001)  MDS_WRITE_FIELD: it,rec,kS,kL,kH=       1     1   1   1   1 file=adsmrsssbar.0000000001
(PID.TID 0000.0001)  MDS_WRITE_FIELD: it,rec,kS,kL,kH=       1     1   1   1   1 file=adm_sst_step.0000000001
(PID.TID 0000.0001)  MDS_WRITE_FIELD: it,rec,kS,kL,kH=       1     2   1   1   1 file=adm_sst_step.0000000001
(PID.TID 0000.0001)  MDS_WRITE_FIELD: it,rec,kS,kL,kH=       1     3   1   1   1 file=adm_sst_step.0000000001
(PID.TID 0000.0001)  MDS_WRITE_FIELD: it,rec,kS,kL,kH=       1     4   1   1   1 file=adm_sst_step.0000000001
(PID.TID 0000.0001)  MDS_WRITE_FIELD: it,rec,kS,kL,kH=       1     5   1   1   1 file=adm_sst_step.0000000001
(PID.TID 0000.0001) 
(PID.TID 0000.0001) // =======================================================
(PID.TID 0000.0001) // ECCO configuration >>> START <<<
(PID.TID 0000.0001) // =======================================================
(PID.TID 0000.0001) 
(PID.TID 0000.0001) gencost( 3) = sst
(PID.TID 0000.0001) -------------
(PID.TID 0000.0001)  data file = labsea_SST_fields_t5
(PID.TID 0000.0001)   starts and ends at :
(PID.TID 0000.0001)   19790101       0  1   4
(PID.TID 0000.0001)   19790101   90000  1   4
(PID.TID 0000.0001)   number of records =     5
(PID.TID 0000.0001)  model file = m_sst_step
(PID.TID 0000.0001)  error file = sigma_sst.bin
(PID.TID 0000.0001)  gencost_flag =  1
(PID.TID 0000.0001)  gencost_outputlevel =  1
(PID.TID 0000.0001)  gencost_kLev_select =  1
(PID.TID 0000.0001) 
(PID.TID 0000.0001) 
(PID.TID 0000.0001) 
(PID.TID 0000.0001) // =======================================================
(PID.TID 0000.0001) // ECCO configuration  >>> END <<<
(PID.TID 0000.0001) // =======================================================
(PID.TID 0000.0001) 
(PID.TID 0000.0001) // =======================================================
(PID.TID 0000.0001) // Seaice configuration (SEAICE_PARM01) >>> START <<<
(PID.TID 0000.0001) // =======================================================
(PID.TID 0000.0001) 
(PID.TID 0000.0001)    Seaice time stepping configuration   > START <
(PID.TID 0000.0001)    ----------------------------------------------
(PID.TID 0000.0001) SEAICE_deltaTtherm= /* thermodynamic timestep */
(PID.TID 0000.0001)                 3.600000000000000E+03
(PID.TID 0000.0001)     ;
(PID.TID 0000.0001) SEAICE_deltaTdyn  = /* dynamic timestep */
(PID.TID 0000.0001)                 3.600000000000000E+03
(PID.TID 0000.0001)     ;
(PID.TID 0000.0001) SEAICE_deltaTevp  = /* EVP timestep */
(PID.TID 0000.0001)                 1.234567000000000E+05
(PID.TID 0000.0001)     ;
(PID.TID 0000.0001) SEAICEuseBDF2  = /* use backw. differencing for mom. eq. */
(PID.TID 0000.0001)                   F
(PID.TID 0000.0001)     ;
(PID.TID 0000.0001) SEAICEupdateOceanStress= /* update Ocean surf. stress */
(PID.TID 0000.0001)                   T
(PID.TID 0000.0001)     ;
(PID.TID 0000.0001) SEAICErestoreUnderIce  = /* restore T and S under ice */
(PID.TID 0000.0001)                   F
(PID.TID 0000.0001)     ;
(PID.TID 0000.0001) 
(PID.TID 0000.0001)    Seaice dynamics configuration   > START <
(PID.TID 0000.0001)    ------------------------------------------
(PID.TID 0000.0001) SEAICEuseDYNAMICS = /* use dynamics */
(PID.TID 0000.0001)                   T
(PID.TID 0000.0001)     ;
(PID.TID 0000.0001) model grid type   = /* type of sea ice model grid */
(PID.TID 0000.0001)               'C-GRID'
(PID.TID 0000.0001)     ;
(PID.TID 0000.0001) SEAICEuseStrImpCpl = /* use strongly implicit coupling */
(PID.TID 0000.0001)                   F
(PID.TID 0000.0001)     ;
(PID.TID 0000.0001) SEAICEusePicardAsPrecon = /* Picard as preconditioner */
(PID.TID 0000.0001)                   F
(PID.TID 0000.0001)     ;
(PID.TID 0000.0001) SEAICEuseLSR      = /* use default Picard-LSR solver */
(PID.TID 0000.0001)                   T
(PID.TID 0000.0001)     ;
(PID.TID 0000.0001) SEAICEuseKrylov   = /* use Picard-Krylov solver */
(PID.TID 0000.0001)                   F
(PID.TID 0000.0001)     ;
(PID.TID 0000.0001) SEAICEuseEVP      = /* use EVP solver rather than LSR */
(PID.TID 0000.0001)                   F
(PID.TID 0000.0001)     ;
(PID.TID 0000.0001) SEAICEuseJFNK     = /* use JFNK solver */
(PID.TID 0000.0001)                   F
(PID.TID 0000.0001)     ;
(PID.TID 0000.0001) SEAICEuseFREEDRIFT = /* use free drift solution */
(PID.TID 0000.0001)                   F
(PID.TID 0000.0001)     ;
(PID.TID 0000.0001) OCEAN_drag        = /* air-ocean drag coefficient */
(PID.TID 0000.0001)                 1.000000000000000E-03
(PID.TID 0000.0001)     ;
(PID.TID 0000.0001) SEAICE_drag       = /* air-ice drag coefficient */
(PID.TID 0000.0001)                 2.000000000000000E-03
(PID.TID 0000.0001)     ;
(PID.TID 0000.0001) SEAICE_drag_south      = /* Southern Ocean SEAICE_drag */
(PID.TID 0000.0001)                 2.000000000000000E-03
(PID.TID 0000.0001)     ;
(PID.TID 0000.0001) SEAICE_waterDrag  = /* water-ice drag (no units) */
(PID.TID 0000.0001)                 5.355404089581304E-03
(PID.TID 0000.0001)     ;
(PID.TID 0000.0001) SEAICE_waterDrag_south = /* Southern Ocean waterDrag (no units) */
(PID.TID 0000.0001)                 5.355404089581304E-03
(PID.TID 0000.0001)     ;
(PID.TID 0000.0001) SEAICEdWatMin = /* minimum linear water-ice drag (in m/s) */
(PID.TID 0000.0001)                 2.500000000000000E-01
(PID.TID 0000.0001)     ;
(PID.TID 0000.0001) SEAICEuseTilt     = /* include surface tilt in dyna. */
(PID.TID 0000.0001)                   T
(PID.TID 0000.0001)     ;
(PID.TID 0000.0001) SEAICEuseTEM      = /* use truncated ellipse rheology */
(PID.TID 0000.0001)                   F
(PID.TID 0000.0001)     ;
(PID.TID 0000.0001) SEAICE_strength   = /* sea-ice strength Pstar */
(PID.TID 0000.0001)                 2.750000000000000E+04
(PID.TID 0000.0001)     ;
(PID.TID 0000.0001) SEAICE_cStar      = /* sea-ice strength parameter cStar */
(PID.TID 0000.0001)                 2.000000000000000E+01
(PID.TID 0000.0001)     ;
(PID.TID 0000.0001) SEAICEpressReplFac= /* press. replacement method factor */
(PID.TID 0000.0001)                 1.000000000000000E+00
(PID.TID 0000.0001)     ;
(PID.TID 0000.0001) SEAICE_tensilFac  = /* sea-ice tensile strength factor */
(PID.TID 0000.0001)                 0.000000000000000E+00
(PID.TID 0000.0001)     ;
(PID.TID 0000.0001) SEAICE_tensilDepth= /* crit. depth for tensile strength */
(PID.TID 0000.0001)                 0.000000000000000E+00
(PID.TID 0000.0001)     ;
(PID.TID 0000.0001) SEAICEpresH0   = /* sea-ice strength Heff threshold */
(PID.TID 0000.0001)                 1.000000000000000E+00
(PID.TID 0000.0001)     ;
(PID.TID 0000.0001) SEAICEpresPow0 = /* exponent for Heff<SEAICEpresH0 */
(PID.TID 0000.0001)                       1
(PID.TID 0000.0001)     ;
(PID.TID 0000.0001) SEAICEpresPow1 = /* exponent for Heff>SEAICEpresH0 */
(PID.TID 0000.0001)                       1
(PID.TID 0000.0001)     ;
(PID.TID 0000.0001) SEAICEetaZmethod = /* method computing eta at Z-point */
(PID.TID 0000.0001)                       0
(PID.TID 0000.0001)     ;
(PID.TID 0000.0001) SEAICE_zetaMaxFac = /* factor for upper viscosity bound */
(PID.TID 0000.0001)                 2.500000000000000E+08
(PID.TID 0000.0001)     ;
(PID.TID 0000.0001) SEAICE_zetaMin    = /* lower bound for viscosity */
(PID.TID 0000.0001)                 0.000000000000000E+00
(PID.TID 0000.0001)     ;
(PID.TID 0000.0001) SEAICE_eccen    = /* elliptical yield curve eccent */
(PID.TID 0000.0001)                 2.000000000000000E+00
(PID.TID 0000.0001)     ;
(PID.TID 0000.0001) SEAICEstressFactor    = /* wind stress scaling factor */
(PID.TID 0000.0001)                 1.000000000000000E+00
(PID.TID 0000.0001)     ;
(PID.TID 0000.0001) SEAICE_airTurnAngle    = /* air-ice turning angle */
(PID.TID 0000.0001)                 0.000000000000000E+00
(PID.TID 0000.0001)     ;
(PID.TID 0000.0001) SEAICE_waterTurnAngle  = /* ice-water turning angle */
(PID.TID 0000.0001)                 0.000000000000000E+00
(PID.TID 0000.0001)     ;
(PID.TID 0000.0001) SEAICEuseMetricTerms = /* use metric terms */
(PID.TID 0000.0001)                   T
(PID.TID 0000.0001)     ;
(PID.TID 0000.0001) SEAICE_no_slip    = /* no slip boundary conditions */
(PID.TID 0000.0001)                   F
(PID.TID 0000.0001)     ;
(PID.TID 0000.0001) SEAICE_2ndOrderBC = /* 2nd order no slip boundary conditions */
(PID.TID 0000.0001)                   F
(PID.TID 0000.0001)     ;
(PID.TID 0000.0001) SEAICE_clipVeloctities = /* impose max. vels. */
(PID.TID 0000.0001)                   F
(PID.TID 0000.0001)     ;
(PID.TID 0000.0001) useHB87stressCoupling  = /* altern. ice-ocean stress */
(PID.TID 0000.0001)                   F
(PID.TID 0000.0001)     ;
(PID.TID 0000.0001) SEAICEscaleSurfStress  = /* scale atm. and ocean-surface stress with AREA */
(PID.TID 0000.0001)                   F
(PID.TID 0000.0001)     ;
(PID.TID 0000.0001) SEAICE_maskRHS    = /* mask RHS of solver */
(PID.TID 0000.0001)                   F
(PID.TID 0000.0001)     ;
(PID.TID 0000.0001) SEAICEaddSnowMass = /* add snow mass to seaiceMassC/U/V */
(PID.TID 0000.0001)                   F
(PID.TID 0000.0001)     ;
(PID.TID 0000.0001) LSR_mixIniGuess = /* mix free-drift sol. into LSR initial Guess */
(PID.TID 0000.0001)                       0
(PID.TID 0000.0001)     ;
(PID.TID 0000.0001) SEAICE_LSRrelaxU  = /* LSR solver: relaxation parameter */
(PID.TID 0000.0001)                 9.500000000000000E-01
(PID.TID 0000.0001)     ;
(PID.TID 0000.0001) SEAICE_LSRrelaxV  = /* LSR solver: relaxation parameter */
(PID.TID 0000.0001)                 9.500000000000000E-01
(PID.TID 0000.0001)     ;
(PID.TID 0000.0001) LSR_ERROR         = /* sets accuracy of LSR solver */
(PID.TID 0000.0001)                 1.000000000000000E-06
(PID.TID 0000.0001)     ;
(PID.TID 0000.0001) SOLV_NCHECK       = /* test interval for LSR solver */
(PID.TID 0000.0001)                       2
(PID.TID 0000.0001)     ;
(PID.TID 0000.0001) SEAICEuseMultiTileSolver = /* use full domain tri-diag solver */
(PID.TID 0000.0001)                   F
(PID.TID 0000.0001)     ;
(PID.TID 0000.0001) SEAICE_OLx = /* overlap for LSR/preconditioner */
(PID.TID 0000.0001)                       0
(PID.TID 0000.0001)     ;
(PID.TID 0000.0001) SEAICE_OLy = /* overlap for LSR/preconditioner */
(PID.TID 0000.0001)                       0
(PID.TID 0000.0001)     ;
(PID.TID 0000.0001) SEAICEnonLinIterMax = /* max. number of nonlinear solver steps */
(PID.TID 0000.0001)                       2
(PID.TID 0000.0001)     ;
(PID.TID 0000.0001) SEAICElinearIterMax = /* max. number of linear solver steps */
(PID.TID 0000.0001)                     500
(PID.TID 0000.0001)     ;
(PID.TID 0000.0001) SEAICEnonLinTol     = /* non-linear solver tolerance */
(PID.TID 0000.0001)                 0.000000000000000E+00
(PID.TID 0000.0001)     ;
(PID.TID 0000.0001) 
(PID.TID 0000.0001)    Seaice advection diffusion config,   > START <
(PID.TID 0000.0001)    -----------------------------------------------
(PID.TID 0000.0001) SEAICEmomAdvection = /* advect sea ice momentum */
(PID.TID 0000.0001)                   F
(PID.TID 0000.0001)     ;
(PID.TID 0000.0001) SEAICEadvHeff = /* advect effective ice thickness */
(PID.TID 0000.0001)                   T
(PID.TID 0000.0001)     ;
(PID.TID 0000.0001) SEAICEadvArea = /* advect fractional ice area */
(PID.TID 0000.0001)                   T
(PID.TID 0000.0001)     ;
(PID.TID 0000.0001) SEAICEadvSnow = /* advect snow layer together with ice */
(PID.TID 0000.0001)                   T
(PID.TID 0000.0001)     ;
(PID.TID 0000.0001) SEAICEadvSalt = /* advect salinity together with ice */
(PID.TID 0000.0001)                   F
(PID.TID 0000.0001)     ;
(PID.TID 0000.0001) SEAICEadvScheme   = /* advection scheme for ice */
(PID.TID 0000.0001)                       2
(PID.TID 0000.0001)     ;
(PID.TID 0000.0001) SEAICEuseFluxForm = /* advection in FV flux form */
(PID.TID 0000.0001)                   T
(PID.TID 0000.0001)     ;
(PID.TID 0000.0001) SEAICEadvSchArea   = /* advection scheme for area */
(PID.TID 0000.0001)                       2
(PID.TID 0000.0001)     ;
(PID.TID 0000.0001) SEAICEadvSchHeff   = /* advection scheme for thickness */
(PID.TID 0000.0001)                       2
(PID.TID 0000.0001)     ;
(PID.TID 0000.0001) SEAICEadvSchSnow   = /* advection scheme for snow */
(PID.TID 0000.0001)                       2
(PID.TID 0000.0001)     ;
(PID.TID 0000.0001) SEAICEdiffKhArea   = /* diffusivity (m^2/s) for area */
(PID.TID 0000.0001)                 2.000000000000000E+02
(PID.TID 0000.0001)     ;
(PID.TID 0000.0001) SEAICEdiffKhHeff   = /* diffusivity (m^2/s) for heff */
(PID.TID 0000.0001)                 2.000000000000000E+02
(PID.TID 0000.0001)     ;
(PID.TID 0000.0001) SEAICEdiffKhSnow   = /* diffusivity (m^2/s) for snow */
(PID.TID 0000.0001)                 2.000000000000000E+02
(PID.TID 0000.0001)     ;
(PID.TID 0000.0001) DIFF1             = /* parameter used in advect.F [m/s] */
(PID.TID 0000.0001)                 0.000000000000000E+00
(PID.TID 0000.0001)     ;
(PID.TID 0000.0001) 
(PID.TID 0000.0001)    Seaice thermodynamics configuration   > START <
(PID.TID 0000.0001)    -----------------------------------------------
(PID.TID 0000.0001) SEAICE_rhoIce     = /* density of sea ice (kg/m3) */
(PID.TID 0000.0001)                 9.100000000000000E+02
(PID.TID 0000.0001)     ;
(PID.TID 0000.0001) SEAICE_rhoSnow    = /* density of snow (kg/m3) */
(PID.TID 0000.0001)                 3.300000000000000E+02
(PID.TID 0000.0001)     ;
(PID.TID 0000.0001) SEAICE_rhoAir     = /* density of air (kg/m3) */
(PID.TID 0000.0001)                 1.200000000000000E+00
(PID.TID 0000.0001)     ;
(PID.TID 0000.0001) usePW79thermodynamics  = /* default 0-layer TD */
(PID.TID 0000.0001)                   T
(PID.TID 0000.0001)     ;
(PID.TID 0000.0001) SEAICE_lhEvap     = /* latent heat of evaporation */
(PID.TID 0000.0001)                 2.500000000000000E+06
(PID.TID 0000.0001)     ;
(PID.TID 0000.0001) SEAICE_lhFusion   = /* latent heat of fusion */
(PID.TID 0000.0001)                 3.340000000000000E+05
(PID.TID 0000.0001)     ;
(PID.TID 0000.0001) SEAICE_mcPheePiston = /* turbulent flux "piston velocity" a la McPhee (m/s) */
(PID.TID 0000.0001)                 2.222222222222222E-03
(PID.TID 0000.0001)     ;
(PID.TID 0000.0001) SEAICE_mcPheeTaper = /* tapering of turbulent flux (0.< <1.) for AREA=1. */
(PID.TID 0000.0001)                 0.000000000000000E+00
(PID.TID 0000.0001)     ;
(PID.TID 0000.0001) SEAICE_mcPheeStepFunc = /* replace linear tapering with step funct. */
(PID.TID 0000.0001)                   F
(PID.TID 0000.0001)     ;
(PID.TID 0000.0001) SEAICE_frazilFrac = /* frazil (T<tempFrz) to seaice conversion rate (0.< <1.) */
(PID.TID 0000.0001)                 8.000000000000000E-01
(PID.TID 0000.0001)     ;
(PID.TID 0000.0001) SEAICE_tempFrz0   = /* freezing temp. of sea water (intercept) */
(PID.TID 0000.0001)                -1.960000000000000E+00
(PID.TID 0000.0001)     ;
(PID.TID 0000.0001) SEAICE_dTempFrz_dS= /* freezing temp. of sea water (slope) */
(PID.TID 0000.0001)                 0.000000000000000E+00
(PID.TID 0000.0001)     ;
(PID.TID 0000.0001) SEAICE_growMeltByConv  = /* grow,melt by vert. conv. */
(PID.TID 0000.0001)                   F
(PID.TID 0000.0001)     ;
(PID.TID 0000.0001) SEAICE_doOpenWaterGrowth = /* grow by open water */
(PID.TID 0000.0001)                   F
(PID.TID 0000.0001)     ;
(PID.TID 0000.0001) SEAICE_doOpenWaterMelt = /* melt by open water */
(PID.TID 0000.0001)                   F
(PID.TID 0000.0001)     ;
(PID.TID 0000.0001) SEAICE_areaGainFormula = /* ice cover gain formula (1,2)*/
(PID.TID 0000.0001)                       2
(PID.TID 0000.0001)     1=from growth by ATM
(PID.TID 0000.0001)     2=from predicted growth by ATM
(PID.TID 0000.0001)     ;
(PID.TID 0000.0001) SEAICE_areaLossFormula = /* ice cover loss formula (1,2)*/
(PID.TID 0000.0001)                       3
(PID.TID 0000.0001)     1=from all but only melt conributions by ATM and OCN
(PID.TID 0000.0001)     2=from net melt-grow>0 by ATM and OCN
(PID.TID 0000.0001)     3=from predicted melt by ATM
(PID.TID 0000.0001)     ;
(PID.TID 0000.0001) HO                = /* nominal thickness of new ice */
(PID.TID 0000.0001)                 5.000000000000000E-01
(PID.TID 0000.0001)     ;
(PID.TID 0000.0001) HO_south               = /* Southern Ocean HO */
(PID.TID 0000.0001)                 5.000000000000000E-01
(PID.TID 0000.0001)     ;
(PID.TID 0000.0001) SEAICE_area_max        = /* set to les than 1. to mimic open leads */
(PID.TID 0000.0001)                 1.000000000000000E+00
(PID.TID 0000.0001)     ;
(PID.TID 0000.0001)    Sea ice has a variable salinity such that
(PID.TID 0000.0001) SEAICE_saltFrac = /* fraction of ocn salinity in new ice */
(PID.TID 0000.0001)                 3.000000000000000E-01
(PID.TID 0000.0001)     ;
(PID.TID 0000.0001) SEAICE_salinityTracer = /* test SITR varia. salinity */
(PID.TID 0000.0001)                   F
(PID.TID 0000.0001)     ;
(PID.TID 0000.0001) SEAICEuseFlooding = /* turn submerged snow into ice */
(PID.TID 0000.0001)                   T
(PID.TID 0000.0001)     ;
(PID.TID 0000.0001) 
(PID.TID 0000.0001)    Seaice air-sea fluxes configuration,   > START <
(PID.TID 0000.0001)    -----------------------------------------------
(PID.TID 0000.0001) SEAICEheatConsFix  = /* accound for ocn<->seaice advect. heat flux */
(PID.TID 0000.0001)                   F
(PID.TID 0000.0001)     ;
(PID.TID 0000.0001) SEAICE_multDim    = /* number of ice categories (1 or 7) */
(PID.TID 0000.0001)                       7
(PID.TID 0000.0001)     ;
(PID.TID 0000.0001) SEAICE_PDF        = /* sea-ice distribution (-) */
(PID.TID 0000.0001)     7 @  1.428571428571428E-01              /* K =  1:  7 */
(PID.TID 0000.0001)     ;
(PID.TID 0000.0001) IMAX_TICE         = /* iterations for ice surface temp */
(PID.TID 0000.0001)                      10
(PID.TID 0000.0001)     ;
(PID.TID 0000.0001) postSolvTempIter= /* flux calculation after surf. temp iter */
(PID.TID 0000.0001)                       0
(PID.TID 0000.0001)     ;
(PID.TID 0000.0001) SEAICE_dryIceAlb  = /* winter albedo */
(PID.TID 0000.0001)                 7.500000000000000E-01
(PID.TID 0000.0001)     ;
(PID.TID 0000.0001) SEAICE_wetIceAlb  = /* summer albedo */
(PID.TID 0000.0001)                 6.600000000000000E-01
(PID.TID 0000.0001)     ;
(PID.TID 0000.0001) SEAICE_drySnowAlb = /* dry snow albedo */
(PID.TID 0000.0001)                 8.400000000000000E-01
(PID.TID 0000.0001)     ;
(PID.TID 0000.0001) SEAICE_wetSnowAlb = /* wet snow albedo */
(PID.TID 0000.0001)                 7.000000000000000E-01
(PID.TID 0000.0001)     ;
(PID.TID 0000.0001) SEAICE_dryIceAlb_south = /* Southern Ocean dryIceAlb */
(PID.TID 0000.0001)                 7.500000000000000E-01
(PID.TID 0000.0001)     ;
(PID.TID 0000.0001) SEAICE_wetIceAlb_south = /* Southern Ocean wetIceAlb */
(PID.TID 0000.0001)                 6.600000000000000E-01
(PID.TID 0000.0001)     ;
(PID.TID 0000.0001) SEAICE_drySnowAlb_south= /* Southern Ocean drySnowAlb */
(PID.TID 0000.0001)                 8.400000000000000E-01
(PID.TID 0000.0001)     ;
(PID.TID 0000.0001) SEAICE_wetSnowAlb_south= /* Southern Ocean wetSnowAlb */
(PID.TID 0000.0001)                 7.000000000000000E-01
(PID.TID 0000.0001)     ;
(PID.TID 0000.0001) SEAICE_wetAlbTemp= /* Temp (o.C) threshold for wet-albedo */
(PID.TID 0000.0001)                -1.000000000000000E-03
(PID.TID 0000.0001)     ;
(PID.TID 0000.0001) SEAICE_snow_emiss = /* snow emissivity */
(PID.TID 0000.0001)                 9.500000000000000E-01
(PID.TID 0000.0001)     ;
(PID.TID 0000.0001) SEAICE_ice_emiss = /* seaice emissivity */
(PID.TID 0000.0001)                 9.500000000000000E-01
(PID.TID 0000.0001)     ;
(PID.TID 0000.0001) SEAICE_cpAir      = /* heat capacity of air */
(PID.TID 0000.0001)                 1.005000000000000E+03
(PID.TID 0000.0001)     ;
(PID.TID 0000.0001) SEAICE_dalton     = /* constant dalton number */
(PID.TID 0000.0001)                 1.750000000000000E-03
(PID.TID 0000.0001)     ;
(PID.TID 0000.0001) SEAICE_iceConduct = /* sea-ice conductivity */
(PID.TID 0000.0001)                 2.165600000000000E+00
(PID.TID 0000.0001)     ;
(PID.TID 0000.0001) SEAICE_snowConduct= /* snow conductivity */
(PID.TID 0000.0001)                 3.100000000000000E-01
(PID.TID 0000.0001)     ;
(PID.TID 0000.0001) SEAICE_snowThick  = /* cutoff snow thickness (for albedo) */
(PID.TID 0000.0001)                 1.500000000000000E-01
(PID.TID 0000.0001)     ;
(PID.TID 0000.0001) SEAICE_shortwave  = /* penetration shortwave radiation */
(PID.TID 0000.0001)                 3.000000000000000E-01
(PID.TID 0000.0001)     ;
(PID.TID 0000.0001) useMaykutSatVapPoly = /* use Maykut Polynomial for Sat.Vap.Pr */
(PID.TID 0000.0001)                   T
(PID.TID 0000.0001)     ;
(PID.TID 0000.0001) MIN_ATEMP         = /* minimum air temperature */
(PID.TID 0000.0001)                -5.000000000000000E+01
(PID.TID 0000.0001)     ;
(PID.TID 0000.0001) MIN_LWDOWN        = /* minimum downward longwave */
(PID.TID 0000.0001)                 6.000000000000000E+01
(PID.TID 0000.0001)     ;
(PID.TID 0000.0001) MIN_TICE          = /* minimum ice temperature */
(PID.TID 0000.0001)                -5.000000000000000E+01
(PID.TID 0000.0001)     ;
(PID.TID 0000.0001) 
(PID.TID 0000.0001)    Seaice initialization and IO config.,   > START <
(PID.TID 0000.0001)    -------------------------------------------------
(PID.TID 0000.0001) SEAICE_initialHEFF= /* initial sea-ice thickness */
(PID.TID 0000.0001)                 1.000000000000000E+00
(PID.TID 0000.0001)     ;
(PID.TID 0000.0001) AreaFile = /* Initial ice concentration File */
(PID.TID 0000.0001)               ''
(PID.TID 0000.0001)     ;
(PID.TID 0000.0001) HeffFile = /* Initial effective ice thickness File */
(PID.TID 0000.0001)               ''
(PID.TID 0000.0001)     ;
(PID.TID 0000.0001) HsnowFile = /* Initial snow thickness File */
(PID.TID 0000.0001)               ''
(PID.TID 0000.0001)     ;
(PID.TID 0000.0001) HsaltFile = /* Initial HSALT File */
(PID.TID 0000.0001)               ''
(PID.TID 0000.0001)     ;
(PID.TID 0000.0001) uIceFile = /* Initial U-ice velocity File */
(PID.TID 0000.0001)               ''
(PID.TID 0000.0001)     ;
(PID.TID 0000.0001) vIceFile = /* Initial V-ice velocity File */
(PID.TID 0000.0001)               ''
(PID.TID 0000.0001)     ;
(PID.TID 0000.0001) SEAICEwriteState  = /* write sea ice state to file */
(PID.TID 0000.0001)                   T
(PID.TID 0000.0001)     ;
(PID.TID 0000.0001) SEAICE_monFreq  = /* monitor frequency */
(PID.TID 0000.0001)                 1.000000000000000E+00
(PID.TID 0000.0001)     ;
(PID.TID 0000.0001) SEAICE_dumpFreq   = /* dump frequency */
(PID.TID 0000.0001)                 0.000000000000000E+00
(PID.TID 0000.0001)     ;
(PID.TID 0000.0001) SEAICE_taveFreq   = /* time-averaging frequency */
(PID.TID 0000.0001)                 0.000000000000000E+00
(PID.TID 0000.0001)     ;
(PID.TID 0000.0001) SEAICE_mon_stdio  = /* write monitor to std-outp */
(PID.TID 0000.0001)                   T
(PID.TID 0000.0001)     ;
(PID.TID 0000.0001) SEAICE_dump_mdsio = /* write snap-shot   using MDSIO */
(PID.TID 0000.0001)                   T
(PID.TID 0000.0001)     ;
(PID.TID 0000.0001) SEAICE_tave_mdsio = /* write TimeAverage using MDSIO */
(PID.TID 0000.0001)                   T
(PID.TID 0000.0001)     ;
(PID.TID 0000.0001) SEAICE_mon_mnc    = /* write monitor to netcdf file */
(PID.TID 0000.0001)                   F
(PID.TID 0000.0001)     ;
(PID.TID 0000.0001) SEAICE_dump_mnc   = /* write snap-shot   using MNC */
(PID.TID 0000.0001)                   F
(PID.TID 0000.0001)     ;
(PID.TID 0000.0001) SEAICE_tave_mnc   = /* write TimeAverage using MNC */
(PID.TID 0000.0001)                   F
(PID.TID 0000.0001)     ;
(PID.TID 0000.0001) 
(PID.TID 0000.0001)    Seaice regularization numbers,   > START <
(PID.TID 0000.0001)    -----------------------------------------------
(PID.TID 0000.0001) SEAICE_deltaMin   = /* reduce singularities in Delta */
(PID.TID 0000.0001)                 1.000000000000000E-08
(PID.TID 0000.0001)     ;
(PID.TID 0000.0001) SEAICE_EPS        = /* small number */
(PID.TID 0000.0001)                 1.000000000000000E-08
(PID.TID 0000.0001)     ;
(PID.TID 0000.0001) SEAICE_EPS_SQ     = /* small number squared */
(PID.TID 0000.0001)                 1.000000000000000E-16
(PID.TID 0000.0001)     ;
(PID.TID 0000.0001) SEAICE_area_reg   = /* reduce derivative singularities */
(PID.TID 0000.0001)                 1.000000000000000E-05
(PID.TID 0000.0001)     ;
(PID.TID 0000.0001) SEAICE_hice_reg   = /* reduce derivative singularities */
(PID.TID 0000.0001)                 5.000000000000000E-02
(PID.TID 0000.0001)     ;
(PID.TID 0000.0001) SEAICE_area_floor = /* reduce derivative singularities */
(PID.TID 0000.0001)                 1.000000000000000E-05
(PID.TID 0000.0001)     ;
(PID.TID 0000.0001) 
(PID.TID 0000.0001) // =======================================================
(PID.TID 0000.0001) // Seaice configuration (SEAICE_PARM01) >>> END <<<
(PID.TID 0000.0001) // =======================================================
(PID.TID 0000.0001) 
(PID.TID 0000.0001)  MDS_WRITE_FIELD: it,rec,kS,kL,kH=       0     1  23   1  23 file=wunit
(PID.TID 0000.0001) CTRL_INIT_REC: Getting record indices for xx_atemp
(PID.TID 0000.0001) CTRL_INIT_REC: Record indices for xx_atemp:
(PID.TID 0000.0001) CTRL_INIT_REC: startrec =          6, endrec =         11
(PID.TID 0000.0001)  MDS_WRITE_FIELD: it,rec,kS,kL,kH=       1     1   1   1   1 file=adxx_atemp.effective.0000000001
(PID.TID 0000.0001)  MDS_WRITE_FIELD: it,rec,kS,kL,kH=       1     2   1   1   1 file=adxx_atemp.effective.0000000001
(PID.TID 0000.0001)  MDS_WRITE_FIELD: it,rec,kS,kL,kH=       1     3   1   1   1 file=adxx_atemp.effective.0000000001
(PID.TID 0000.0001)  MDS_WRITE_FIELD: it,rec,kS,kL,kH=       1     4   1   1   1 file=adxx_atemp.effective.0000000001
(PID.TID 0000.0001)  MDS_WRITE_FIELD: it,rec,kS,kL,kH=       1     5   1   1   1 file=adxx_atemp.effective.0000000001
(PID.TID 0000.0001)  MDS_WRITE_FIELD: it,rec,kS,kL,kH=       1     6   1   1   1 file=adxx_atemp.effective.0000000001
(PID.TID 0000.0001)  MDS_WRITE_FIELD: it,rec,kS,kL,kH=       1     1   1   1   1 file=adxx_atemp.tmp.0000000001
(PID.TID 0000.0001)  MDS_WRITE_FIELD: it,rec,kS,kL,kH=       1     2   1   1   1 file=adxx_atemp.tmp.0000000001
(PID.TID 0000.0001)  MDS_WRITE_FIELD: it,rec,kS,kL,kH=       1     3   1   1   1 file=adxx_atemp.tmp.0000000001
(PID.TID 0000.0001)  MDS_WRITE_FIELD: it,rec,kS,kL,kH=       1     4   1   1   1 file=adxx_atemp.tmp.0000000001
(PID.TID 0000.0001)  MDS_WRITE_FIELD: it,rec,kS,kL,kH=       1     5   1   1   1 file=adxx_atemp.tmp.0000000001
(PID.TID 0000.0001)  MDS_WRITE_FIELD: it,rec,kS,kL,kH=       1     6   1   1   1 file=adxx_atemp.tmp.0000000001
(PID.TID 0000.0001)  MDS_WRITE_FIELD: it,rec,kS,kL,kH=       1     1   1   1   1 file=adxx_atemp.0000000001
(PID.TID 0000.0001)  MDS_WRITE_FIELD: it,rec,kS,kL,kH=       1     2   1   1   1 file=adxx_atemp.0000000001
(PID.TID 0000.0001)  MDS_WRITE_FIELD: it,rec,kS,kL,kH=       1     3   1   1   1 file=adxx_atemp.0000000001
(PID.TID 0000.0001)  MDS_WRITE_FIELD: it,rec,kS,kL,kH=       1     4   1   1   1 file=adxx_atemp.0000000001
(PID.TID 0000.0001)  MDS_WRITE_FIELD: it,rec,kS,kL,kH=       1     5   1   1   1 file=adxx_atemp.0000000001
(PID.TID 0000.0001)  MDS_WRITE_FIELD: it,rec,kS,kL,kH=       1     6   1   1   1 file=adxx_atemp.0000000001
(PID.TID 0000.0001)  MDS_WRITE_FIELD: it,rec,kS,kL,kH=       1     7   1   1   1 file=adxx_atemp.0000000001
(PID.TID 0000.0001)  MDS_WRITE_FIELD: it,rec,kS,kL,kH=       1     8   1   1   1 file=adxx_atemp.0000000001
(PID.TID 0000.0001)  MDS_WRITE_FIELD: it,rec,kS,kL,kH=       1     9   1   1   1 file=adxx_atemp.0000000001
(PID.TID 0000.0001)  MDS_WRITE_FIELD: it,rec,kS,kL,kH=       1    10   1   1   1 file=adxx_atemp.0000000001
(PID.TID 0000.0001)  MDS_WRITE_FIELD: it,rec,kS,kL,kH=       1    11   1   1   1 file=adxx_atemp.0000000001
(PID.TID 0000.0001) CTRL_INIT_REC: Getting record indices for
(PID.TID 0000.0001) CTRL_INIT_REC: Record indices for :
(PID.TID 0000.0001) CTRL_INIT_REC: startrec =          1, endrec =          1
(PID.TID 0000.0001) CTRL_INIT_REC: Getting record indices for
(PID.TID 0000.0001) CTRL_INIT_REC: Record indices for :
(PID.TID 0000.0001) CTRL_INIT_REC: startrec =          1, endrec =          1
(PID.TID 0000.0001) CTRL_INIT_REC: Getting record indices for
(PID.TID 0000.0001) CTRL_INIT_REC: Record indices for :
(PID.TID 0000.0001) CTRL_INIT_REC: startrec =          1, endrec =          1
(PID.TID 0000.0001) CTRL_INIT_REC: Getting record indices for
(PID.TID 0000.0001) CTRL_INIT_REC: Record indices for :
(PID.TID 0000.0001) CTRL_INIT_REC: startrec =          1, endrec =          1
(PID.TID 0000.0001) CTRL_INIT_REC: Getting record indices for
(PID.TID 0000.0001) CTRL_INIT_REC: Record indices for :
(PID.TID 0000.0001) CTRL_INIT_REC: startrec =          1, endrec =          1
(PID.TID 0000.0001) CTRL_INIT_REC: Getting record indices for
(PID.TID 0000.0001) CTRL_INIT_REC: Record indices for :
(PID.TID 0000.0001) CTRL_INIT_REC: startrec =          1, endrec =          1
(PID.TID 0000.0001) CTRL_INIT_REC: Getting record indices for
(PID.TID 0000.0001) CTRL_INIT_REC: Record indices for :
(PID.TID 0000.0001) CTRL_INIT_REC: startrec =          1, endrec =          1
(PID.TID 0000.0001) CTRL_INIT_REC: Getting record indices for
(PID.TID 0000.0001) CTRL_INIT_REC: Record indices for :
(PID.TID 0000.0001) CTRL_INIT_REC: startrec =          1, endrec =          1
(PID.TID 0000.0001) ctrl-wet 1:    nvarlength =         1650
(PID.TID 0000.0001) ctrl-wet 2: surface wet C =          150
(PID.TID 0000.0001) ctrl-wet 3: surface wet W =          129
(PID.TID 0000.0001) ctrl-wet 4: surface wet S =          120
(PID.TID 0000.0001) ctrl-wet 4a:surface wet V =            0
(PID.TID 0000.0001) ctrl-wet 5: 3D wet points =         1860
(PID.TID 0000.0001) ctrl-wet 6: no recs for i =     1           0
(PID.TID 0000.0001) ctrl-wet 6: no recs for i =     2           0
(PID.TID 0000.0001) ctrl-wet 6: no recs for i =     3           0
(PID.TID 0000.0001) ctrl-wet 6: no recs for i =     4           0
(PID.TID 0000.0001) ctrl-wet 6: no recs for i =     5           0
(PID.TID 0000.0001) ctrl-wet 6: no recs for i =     6           0
(PID.TID 0000.0001) ctrl-wet 6: no recs for i =     7           0
(PID.TID 0000.0001) ctrl-wet 6: no recs for i =     8           0
(PID.TID 0000.0001) ctrl-wet 6: no recs for i =     9           0
(PID.TID 0000.0001) ctrl-wet 6: no recs for i =    10           0
(PID.TID 0000.0001) ctrl-wet 6: no recs for i =    11           0
(PID.TID 0000.0001) ctrl-wet 6: no recs for i =    12           0
(PID.TID 0000.0001) ctrl-wet 6: no recs for i =    13           0
(PID.TID 0000.0001) ctrl-wet 6: no recs for i =    14           0
(PID.TID 0000.0001) ctrl-wet 6: no recs for i =    15           0
(PID.TID 0000.0001) ctrl-wet 6: no recs for i =    16           0
(PID.TID 0000.0001) ctrl-wet 6: no recs for i =    17           0
(PID.TID 0000.0001) ctrl-wet 6: no recs for i =    18           0
(PID.TID 0000.0001) ctrl-wet 6: no recs for i =    19           0
(PID.TID 0000.0001) ctrl-wet 6: no recs for i =    20           0
(PID.TID 0000.0001) ctrl-wet 6: no recs for i =    21           0
(PID.TID 0000.0001) ctrl-wet 6: no recs for i =    22           0
(PID.TID 0000.0001) ctrl-wet 6: no recs for i =    23           0
(PID.TID 0000.0001) ctrl-wet 6: no recs for i =    24           0
(PID.TID 0000.0001) ctrl-wet 6: no recs for i =    25           0
(PID.TID 0000.0001) ctrl-wet 6: no recs for i =    26           0
(PID.TID 0000.0001) ctrl-wet 6: no recs for i =    27           0
(PID.TID 0000.0001) ctrl-wet 6: no recs for i =    28           0
(PID.TID 0000.0001) ctrl-wet 6: no recs for i =    29           0
(PID.TID 0000.0001) ctrl-wet 6: no recs for i =    30           0
(PID.TID 0000.0001) ctrl-wet 6: no recs for i =    31           0
(PID.TID 0000.0001) ctrl-wet 6: no recs for i =    32           0
(PID.TID 0000.0001) ctrl-wet 6: no recs for i =    33           0
(PID.TID 0000.0001) ctrl-wet 6: no recs for i =    34           0
(PID.TID 0000.0001) ctrl-wet 6: no recs for i =    35           0
(PID.TID 0000.0001) ctrl-wet 6: no recs for i =    36           0
(PID.TID 0000.0001) ctrl-wet 6: no recs for i =    37           0
(PID.TID 0000.0001) ctrl-wet 6: no recs for i =    38           0
(PID.TID 0000.0001) ctrl-wet 6: no recs for i =    39           0
(PID.TID 0000.0001) ctrl-wet 6: no recs for i =    40           0
(PID.TID 0000.0001) ctrl-wet 6: no recs for i =    41           0
(PID.TID 0000.0001) ctrl-wet 6: no recs for i =    42           0
(PID.TID 0000.0001) ctrl-wet 6: no recs for i =    43           0
(PID.TID 0000.0001) ctrl-wet 6: no recs for i =    44           0
(PID.TID 0000.0001) ctrl-wet 6: no recs for i =    45           0
(PID.TID 0000.0001) ctrl-wet 6: no recs for i =    46           0
(PID.TID 0000.0001) ctrl-wet 6: no recs for i =    47           0
(PID.TID 0000.0001) ctrl-wet 6: no recs for i =    48           0
(PID.TID 0000.0001) ctrl-wet 6: no recs for i =    49           0
(PID.TID 0000.0001) ctrl-wet 6: no recs for i =    50           0
(PID.TID 0000.0001) ctrl-wet 6: no recs for i =    51           0
(PID.TID 0000.0001) ctrl-wet 6: no recs for i =    52           0
(PID.TID 0000.0001) ctrl-wet 6: no recs for i =    53           0
(PID.TID 0000.0001) ctrl-wet 6: no recs for i =    54           0
(PID.TID 0000.0001) ctrl-wet 6: no recs for i =    55           0
(PID.TID 0000.0001) ctrl-wet 6: no recs for i =    56           0
(PID.TID 0000.0001) ctrl-wet 6: no recs for i =    57           0
(PID.TID 0000.0001) ctrl-wet 6: no recs for i =    58           0
(PID.TID 0000.0001) ctrl-wet 6: no recs for i =    59           0
(PID.TID 0000.0001) ctrl-wet 6: no recs for i =    60           0
(PID.TID 0000.0001) ctrl-wet 6: no recs for i =    61           0
(PID.TID 0000.0001) ctrl-wet 6: no recs for i =    62           0
(PID.TID 0000.0001) ctrl-wet 6: no recs for i =    63           0
(PID.TID 0000.0001) ctrl-wet 6: no recs for i =    64           0
(PID.TID 0000.0001) ctrl-wet 6: no recs for i =    65           0
(PID.TID 0000.0001) ctrl-wet 6: no recs for i =    66           0
(PID.TID 0000.0001) ctrl-wet 6: no recs for i =    67           0
(PID.TID 0000.0001) ctrl-wet 6: no recs for i =    68           0
(PID.TID 0000.0001) ctrl-wet 6: no recs for i =    69           0
(PID.TID 0000.0001) ctrl-wet 6: no recs for i =    70           0
(PID.TID 0000.0001) ctrl-wet 6: no recs for i =    71           0
(PID.TID 0000.0001) ctrl-wet 6: no recs for i =    72           0
(PID.TID 0000.0001) ctrl-wet 6: no recs for i =    73           0
(PID.TID 0000.0001) ctrl-wet 6: no recs for i =    74           0
(PID.TID 0000.0001) ctrl-wet 6: no recs for i =    75           0
(PID.TID 0000.0001) ctrl-wet 6: no recs for i =    76           0
(PID.TID 0000.0001) ctrl-wet 6: no recs for i =    77           0
(PID.TID 0000.0001) ctrl-wet 6: no recs for i =    78           0
(PID.TID 0000.0001) ctrl-wet 6: no recs for i =    79           0
(PID.TID 0000.0001) ctrl-wet 6: no recs for i =    80           0
(PID.TID 0000.0001) ctrl-wet 6: no recs for i =    81           0
(PID.TID 0000.0001) ctrl-wet 6: no recs for i =    82           0
(PID.TID 0000.0001) ctrl-wet 6: no recs for i =    83           0
(PID.TID 0000.0001) ctrl-wet 6: no recs for i =    84           0
(PID.TID 0000.0001) ctrl-wet 6: no recs for i =    85           0
(PID.TID 0000.0001) ctrl-wet 6: no recs for i =    86           0
(PID.TID 0000.0001) ctrl-wet 6: no recs for i =    87           0
(PID.TID 0000.0001) ctrl-wet 6: no recs for i =    88           0
(PID.TID 0000.0001) ctrl-wet 6: no recs for i =    89           0
(PID.TID 0000.0001) ctrl-wet 6: no recs for i =    90           0
(PID.TID 0000.0001) ctrl-wet 6: no recs for i =    91           0
(PID.TID 0000.0001) ctrl-wet 6: no recs for i =    92           0
(PID.TID 0000.0001) ctrl-wet 6: no recs for i =    93           0
(PID.TID 0000.0001) ctrl-wet 6: no recs for i =    94           0
(PID.TID 0000.0001) ctrl-wet 6: no recs for i =    95           0
(PID.TID 0000.0001) ctrl-wet 6: no recs for i =    96           0
(PID.TID 0000.0001) ctrl-wet 6: no recs for i =    97           0
(PID.TID 0000.0001) ctrl-wet 6: no recs for i =    98           0
(PID.TID 0000.0001) ctrl-wet 6: no recs for i =    99           0
(PID.TID 0000.0001) ctrl-wet 6: no recs for i =   100           0
(PID.TID 0000.0001) ctrl-wet 6: no recs for i =   101           0
(PID.TID 0000.0001) ctrl-wet 6: no recs for i =   102           0
(PID.TID 0000.0001) ctrl-wet 6: no recs for i =   103           0
(PID.TID 0000.0001) ctrl-wet 6: no recs for i =   104           0
(PID.TID 0000.0001) ctrl-wet 6: no recs for i =   105           0
(PID.TID 0000.0001) ctrl-wet 6: no recs for i =   106           0
(PID.TID 0000.0001) ctrl-wet 6: no recs for i =   107           0
(PID.TID 0000.0001) ctrl-wet 6: no recs for i =   108           0
(PID.TID 0000.0001) ctrl-wet 6: no recs for i =   109           0
(PID.TID 0000.0001) ctrl-wet 6: no recs for i =   110           0
(PID.TID 0000.0001) ctrl-wet 6: no recs for i =   111           0
(PID.TID 0000.0001) ctrl-wet 6: no recs for i =   112           0
(PID.TID 0000.0001) ctrl-wet 6: no recs for i =   113           0
(PID.TID 0000.0001) ctrl-wet 6: no recs for i =   114           0
(PID.TID 0000.0001) ctrl-wet 6: no recs for i =   115           0
(PID.TID 0000.0001) ctrl-wet 6: no recs for i =   116           0
(PID.TID 0000.0001) ctrl-wet 6: no recs for i =   117           0
(PID.TID 0000.0001) ctrl-wet 6: no recs for i =   118           0
(PID.TID 0000.0001) ctrl-wet 6: no recs for i =   119           0
(PID.TID 0000.0001) ctrl-wet 6: no recs for i =   120           0
(PID.TID 0000.0001) ctrl-wet 6: no recs for i =   121           0
(PID.TID 0000.0001) ctrl-wet 6: no recs for i =   122           0
(PID.TID 0000.0001) ctrl-wet 6: no recs for i =   123           0
(PID.TID 0000.0001) ctrl-wet 6: no recs for i =   124           0
(PID.TID 0000.0001) ctrl-wet 6: no recs for i =   125           0
(PID.TID 0000.0001) ctrl-wet 6: no recs for i =   126           0
(PID.TID 0000.0001) ctrl-wet 6: no recs for i =   127           0
(PID.TID 0000.0001) ctrl-wet 6: no recs for i =   128           0
(PID.TID 0000.0001) ctrl-wet 6: no recs for i =   129           0
(PID.TID 0000.0001) ctrl-wet 6: no recs for i =   130           0
(PID.TID 0000.0001) ctrl-wet 6: no recs for i =   131           0
(PID.TID 0000.0001) ctrl-wet 6: no recs for i =   132           0
(PID.TID 0000.0001) ctrl-wet 6: no recs for i =   133           0
(PID.TID 0000.0001) ctrl-wet 6: no recs for i =   134           0
(PID.TID 0000.0001) ctrl-wet 6: no recs for i =   135           0
(PID.TID 0000.0001) ctrl-wet 6: no recs for i =   136           0
(PID.TID 0000.0001) ctrl-wet 6: no recs for i =   137           0
(PID.TID 0000.0001) ctrl-wet 6: no recs for i =   138           0
(PID.TID 0000.0001) ctrl-wet 6: no recs for i =   139           0
(PID.TID 0000.0001) ctrl-wet 6: no recs for i =   140           0
(PID.TID 0000.0001) ctrl-wet 6: no recs for i =   141           0
(PID.TID 0000.0001) ctrl-wet 6: no recs for i =   142           0
(PID.TID 0000.0001) ctrl-wet 6: no recs for i =   143           0
(PID.TID 0000.0001) ctrl-wet 6: no recs for i =   144           0
(PID.TID 0000.0001) ctrl-wet 6: no recs for i =   145           0
(PID.TID 0000.0001) ctrl-wet 6: no recs for i =   146           0
(PID.TID 0000.0001) ctrl-wet 6: no recs for i =   147           0
(PID.TID 0000.0001) ctrl-wet 6: no recs for i =   148           0
(PID.TID 0000.0001) ctrl-wet 6: no recs for i =   149           0
(PID.TID 0000.0001) ctrl-wet 6: no recs for i =   150           0
(PID.TID 0000.0001) ctrl-wet 6: no recs for i =   151           0
(PID.TID 0000.0001) ctrl-wet 6: no recs for i =   152           0
(PID.TID 0000.0001) ctrl-wet 6: no recs for i =   153           0
(PID.TID 0000.0001) ctrl-wet 6: no recs for i =   154           0
(PID.TID 0000.0001) ctrl-wet 6: no recs for i =   155           0
(PID.TID 0000.0001) ctrl-wet 6: no recs for i =   156           0
(PID.TID 0000.0001) ctrl-wet 6: no recs for i =   157           0
(PID.TID 0000.0001) ctrl-wet 6: no recs for i =   158           0
(PID.TID 0000.0001) ctrl-wet 6: no recs for i =   159           0
(PID.TID 0000.0001) ctrl-wet 6: no recs for i =   160           0
(PID.TID 0000.0001) ctrl-wet 6: no recs for i =   161           0
(PID.TID 0000.0001) ctrl-wet 6: no recs for i =   162           0
(PID.TID 0000.0001) ctrl-wet 6: no recs for i =   163           0
(PID.TID 0000.0001) ctrl-wet 6: no recs for i =   164           0
(PID.TID 0000.0001) ctrl-wet 6: no recs for i =   165           0
(PID.TID 0000.0001) ctrl-wet 6: no recs for i =   166           0
(PID.TID 0000.0001) ctrl-wet 6: no recs for i =   167           0
(PID.TID 0000.0001) ctrl-wet 6: no recs for i =   168           0
(PID.TID 0000.0001) ctrl-wet 6: no recs for i =   169           0
(PID.TID 0000.0001) ctrl-wet 6: no recs for i =   170           0
(PID.TID 0000.0001) ctrl-wet 6: no recs for i =   171           0
(PID.TID 0000.0001) ctrl-wet 6: no recs for i =   172           0
(PID.TID 0000.0001) ctrl-wet 6: no recs for i =   173           0
(PID.TID 0000.0001) ctrl-wet 6: no recs for i =   174           0
(PID.TID 0000.0001) ctrl-wet 6: no recs for i =   175           0
(PID.TID 0000.0001) ctrl-wet 6: no recs for i =   176           0
(PID.TID 0000.0001) ctrl-wet 6: no recs for i =   177           0
(PID.TID 0000.0001) ctrl-wet 6: no recs for i =   178           0
(PID.TID 0000.0001) ctrl-wet 6: no recs for i =   179           0
(PID.TID 0000.0001) ctrl-wet 6: no recs for i =   180           0
(PID.TID 0000.0001) ctrl-wet 6: no recs for i =   181           0
(PID.TID 0000.0001) ctrl-wet 6: no recs for i =   182           0
(PID.TID 0000.0001) ctrl-wet 6: no recs for i =   183           0
(PID.TID 0000.0001) ctrl-wet 6: no recs for i =   184           0
(PID.TID 0000.0001) ctrl-wet 6: no recs for i =   185           0
(PID.TID 0000.0001) ctrl-wet 6: no recs for i =   186           0
(PID.TID 0000.0001) ctrl-wet 6: no recs for i =   187           0
(PID.TID 0000.0001) ctrl-wet 6: no recs for i =   188           0
(PID.TID 0000.0001) ctrl-wet 6: no recs for i =   189           0
(PID.TID 0000.0001) ctrl-wet 6: no recs for i =   190           0
(PID.TID 0000.0001) ctrl-wet 6: no recs for i =   191           0
(PID.TID 0000.0001) ctrl-wet 6: no recs for i =   192           0
(PID.TID 0000.0001) ctrl-wet 6: no recs for i =   193           0
(PID.TID 0000.0001) ctrl-wet 6: no recs for i =   194           0
(PID.TID 0000.0001) ctrl-wet 6: no recs for i =   195           0
(PID.TID 0000.0001) ctrl-wet 6: no recs for i =   196           0
(PID.TID 0000.0001) ctrl-wet 6: no recs for i =   197           0
(PID.TID 0000.0001) ctrl-wet 6: no recs for i =   198           0
(PID.TID 0000.0001) ctrl-wet 6: no recs for i =   199           0
(PID.TID 0000.0001) ctrl-wet 6: no recs for i =   200           0
(PID.TID 0000.0001) ctrl-wet 6: no recs for i =   201           0
(PID.TID 0000.0001) ctrl-wet 6: no recs for i =   202           0
(PID.TID 0000.0001) ctrl-wet 6: no recs for i =   203           0
(PID.TID 0000.0001) ctrl-wet 6: no recs for i =   204           0
(PID.TID 0000.0001) ctrl-wet 6: no recs for i =   205           0
(PID.TID 0000.0001) ctrl-wet 6: no recs for i =   206           0
(PID.TID 0000.0001) ctrl-wet 6: no recs for i =   207           0
(PID.TID 0000.0001) ctrl-wet 6: no recs for i =   208           0
(PID.TID 0000.0001) ctrl-wet 6: no recs for i =   209           0
(PID.TID 0000.0001) ctrl-wet 6: no recs for i =   210           0
(PID.TID 0000.0001) ctrl-wet 6: no recs for i =   211           0
(PID.TID 0000.0001) ctrl-wet 6: no recs for i =   212           0
(PID.TID 0000.0001) ctrl-wet 6: no recs for i =   213           0
(PID.TID 0000.0001) ctrl-wet 6: no recs for i =   214           0
(PID.TID 0000.0001) ctrl-wet 6: no recs for i =   215           0
(PID.TID 0000.0001) ctrl-wet 6: no recs for i =   216           0
(PID.TID 0000.0001) ctrl-wet 6: no recs for i =   217           0
(PID.TID 0000.0001) ctrl-wet 6: no recs for i =   218           0
(PID.TID 0000.0001) ctrl-wet 6: no recs for i =   219           0
(PID.TID 0000.0001) ctrl-wet 6: no recs for i =   220           0
(PID.TID 0000.0001) ctrl-wet 6: no recs for i =   221           0
(PID.TID 0000.0001) ctrl-wet 6: no recs for i =   222           0
(PID.TID 0000.0001) ctrl-wet 6: no recs for i =   223           0
(PID.TID 0000.0001) ctrl-wet 6: no recs for i =   224           0
(PID.TID 0000.0001) ctrl-wet 6: no recs for i =   225           0
(PID.TID 0000.0001) ctrl-wet 6: no recs for i =   226           0
(PID.TID 0000.0001) ctrl-wet 6: no recs for i =   227           0
(PID.TID 0000.0001) ctrl-wet 6: no recs for i =   228           0
(PID.TID 0000.0001) ctrl-wet 6: no recs for i =   229           0
(PID.TID 0000.0001) ctrl-wet 6: no recs for i =   230           0
(PID.TID 0000.0001) ctrl-wet 6: no recs for i =   231           0
(PID.TID 0000.0001) ctrl-wet 6: no recs for i =   232           0
(PID.TID 0000.0001) ctrl-wet 6: no recs for i =   233           0
(PID.TID 0000.0001) ctrl-wet 6: no recs for i =   234           0
(PID.TID 0000.0001) ctrl-wet 6: no recs for i =   235           0
(PID.TID 0000.0001) ctrl-wet 6: no recs for i =   236           0
(PID.TID 0000.0001) ctrl-wet 6: no recs for i =   237           0
(PID.TID 0000.0001) ctrl-wet 6: no recs for i =   238           0
(PID.TID 0000.0001) ctrl-wet 6: no recs for i =   239           0
(PID.TID 0000.0001) ctrl-wet 6: no recs for i =   240           0
(PID.TID 0000.0001) ctrl-wet 6: no recs for i =   241           0
(PID.TID 0000.0001) ctrl-wet 6: no recs for i =   242           0
(PID.TID 0000.0001) ctrl-wet 6: no recs for i =   243           0
(PID.TID 0000.0001) ctrl-wet 6: no recs for i =   244           0
(PID.TID 0000.0001) ctrl-wet 6: no recs for i =   245           0
(PID.TID 0000.0001) ctrl-wet 6: no recs for i =   246           0
(PID.TID 0000.0001) ctrl-wet 6: no recs for i =   247           0
(PID.TID 0000.0001) ctrl-wet 6: no recs for i =   248           0
(PID.TID 0000.0001) ctrl-wet 6: no recs for i =   249           0
(PID.TID 0000.0001) ctrl-wet 6: no recs for i =   250           0
(PID.TID 0000.0001) ctrl-wet 6: no recs for i =   251           0
(PID.TID 0000.0001) ctrl-wet 6: no recs for i =   252           0
(PID.TID 0000.0001) ctrl-wet 6: no recs for i =   253           0
(PID.TID 0000.0001) ctrl-wet 6: no recs for i =   254           0
(PID.TID 0000.0001) ctrl-wet 6: no recs for i =   255           0
(PID.TID 0000.0001) ctrl-wet 6: no recs for i =   256           0
(PID.TID 0000.0001) ctrl-wet 6: no recs for i =   257           0
(PID.TID 0000.0001) ctrl-wet 6: no recs for i =   258           0
(PID.TID 0000.0001) ctrl-wet 6: no recs for i =   259           0
(PID.TID 0000.0001) ctrl-wet 6: no recs for i =   260           0
(PID.TID 0000.0001) ctrl-wet 6: no recs for i =   261           0
(PID.TID 0000.0001) ctrl-wet 6: no recs for i =   262           0
(PID.TID 0000.0001) ctrl-wet 6: no recs for i =   263           0
(PID.TID 0000.0001) ctrl-wet 6: no recs for i =   264           0
(PID.TID 0000.0001) ctrl-wet 6: no recs for i =   265           0
(PID.TID 0000.0001) ctrl-wet 6: no recs for i =   266           0
(PID.TID 0000.0001) ctrl-wet 6: no recs for i =   267           0
(PID.TID 0000.0001) ctrl-wet 6: no recs for i =   268           0
(PID.TID 0000.0001) ctrl-wet 6: no recs for i =   269           0
(PID.TID 0000.0001) ctrl-wet 6: no recs for i =   270           0
(PID.TID 0000.0001) ctrl-wet 6: no recs for i =   271           0
(PID.TID 0000.0001) ctrl-wet 6: no recs for i =   272           0
(PID.TID 0000.0001) ctrl-wet 6: no recs for i =   273           0
(PID.TID 0000.0001) ctrl-wet 6: no recs for i =   274           0
(PID.TID 0000.0001) ctrl-wet 6: no recs for i =   275           0
(PID.TID 0000.0001) ctrl-wet 6: no recs for i =   276           0
(PID.TID 0000.0001) ctrl-wet 6: no recs for i =   277           0
(PID.TID 0000.0001) ctrl-wet 6: no recs for i =   278           0
(PID.TID 0000.0001) ctrl-wet 6: no recs for i =   279           0
(PID.TID 0000.0001) ctrl-wet 6: no recs for i =   280           0
(PID.TID 0000.0001) ctrl-wet 6: no recs for i =   281           0
(PID.TID 0000.0001) ctrl-wet 6: no recs for i =   282           0
(PID.TID 0000.0001) ctrl-wet 6: no recs for i =   283           0
(PID.TID 0000.0001) ctrl-wet 6: no recs for i =   284           0
(PID.TID 0000.0001) ctrl-wet 6: no recs for i =   285           0
(PID.TID 0000.0001) ctrl-wet 6: no recs for i =   286           0
(PID.TID 0000.0001) ctrl-wet 6: no recs for i =   287           0
(PID.TID 0000.0001) ctrl-wet 6: no recs for i =   288           0
(PID.TID 0000.0001) ctrl-wet 6: no recs for i =   289           0
(PID.TID 0000.0001) ctrl-wet 6: no recs for i =   290           0
(PID.TID 0000.0001) ctrl-wet 6: no recs for i =   291           0
(PID.TID 0000.0001) ctrl-wet 6: no recs for i =   292           0
(PID.TID 0000.0001) ctrl-wet 6: no recs for i =   293           0
(PID.TID 0000.0001) ctrl-wet 6: no recs for i =   294           0
(PID.TID 0000.0001) ctrl-wet 6: no recs for i =   295           0
(PID.TID 0000.0001) ctrl-wet 6: no recs for i =   296           0
(PID.TID 0000.0001) ctrl-wet 6: no recs for i =   297           0
(PID.TID 0000.0001) ctrl-wet 6: no recs for i =   298           0
(PID.TID 0000.0001) ctrl-wet 6: no recs for i =   299           0
(PID.TID 0000.0001) ctrl-wet 6: no recs for i =   300           0
(PID.TID 0000.0001) ctrl-wet 6: no recs for i =   301          11
(PID.TID 0000.0001) ctrl-wet 6: no recs for i =   302           0
(PID.TID 0000.0001) ctrl-wet 6: no recs for i =   303           0
(PID.TID 0000.0001) ctrl-wet 6: no recs for i =   304           0
(PID.TID 0000.0001) ctrl-wet 6: no recs for i =   305           0
(PID.TID 0000.0001) ctrl-wet 6: no recs for i =   306           0
(PID.TID 0000.0001) ctrl-wet 6: no recs for i =   307           0
(PID.TID 0000.0001) ctrl-wet 6: no recs for i =   308           0
(PID.TID 0000.0001) ctrl-wet 6: no recs for i =   309           0
(PID.TID 0000.0001) ctrl-wet 6: no recs for i =   310           0
(PID.TID 0000.0001) ctrl-wet 6: no recs for i =   311           0
(PID.TID 0000.0001) ctrl-wet 6: no recs for i =   312           0
(PID.TID 0000.0001) ctrl-wet 6: no recs for i =   313           0
(PID.TID 0000.0001) ctrl-wet 6: no recs for i =   314           0
(PID.TID 0000.0001) ctrl-wet 6: no recs for i =   315           0
(PID.TID 0000.0001) ctrl-wet 6: no recs for i =   316           0
(PID.TID 0000.0001) ctrl-wet 6: no recs for i =   317           0
(PID.TID 0000.0001) ctrl-wet 6: no recs for i =   318           0
(PID.TID 0000.0001) ctrl-wet 6: no recs for i =   319           0
(PID.TID 0000.0001) ctrl-wet 6: no recs for i =   320           0
(PID.TID 0000.0001) ctrl-wet 6: no recs for i =   321           0
(PID.TID 0000.0001) ctrl-wet 6: no recs for i =   322           0
(PID.TID 0000.0001) ctrl-wet 6: no recs for i =   323           0
(PID.TID 0000.0001) ctrl-wet 6: no recs for i =   324           0
(PID.TID 0000.0001) ctrl-wet 6: no recs for i =   325           0
(PID.TID 0000.0001) ctrl-wet 6: no recs for i =   326           0
(PID.TID 0000.0001) ctrl-wet 6: no recs for i =   327           0
(PID.TID 0000.0001) ctrl-wet 6: no recs for i =   328           0
(PID.TID 0000.0001) ctrl-wet 6: no recs for i =   329           0
(PID.TID 0000.0001) ctrl-wet 6: no recs for i =   330           0
(PID.TID 0000.0001) ctrl-wet 6: no recs for i =   331           0
(PID.TID 0000.0001) ctrl-wet 6: no recs for i =   332           0
(PID.TID 0000.0001) ctrl-wet 6: no recs for i =   333           0
(PID.TID 0000.0001) ctrl-wet 6: no recs for i =   334           0
(PID.TID 0000.0001) ctrl-wet 6: no recs for i =   335           0
(PID.TID 0000.0001) ctrl-wet 6: no recs for i =   336           0
(PID.TID 0000.0001) ctrl-wet 6: no recs for i =   337           0
(PID.TID 0000.0001) ctrl-wet 6: no recs for i =   338           0
(PID.TID 0000.0001) ctrl-wet 6: no recs for i =   339           0
(PID.TID 0000.0001) ctrl-wet 6: no recs for i =   340           0
(PID.TID 0000.0001) ctrl-wet 6: no recs for i =   341           0
(PID.TID 0000.0001) ctrl-wet 6: no recs for i =   342           0
(PID.TID 0000.0001) ctrl-wet 6: no recs for i =   343           0
(PID.TID 0000.0001) ctrl-wet 6: no recs for i =   344           0
(PID.TID 0000.0001) ctrl-wet 6: no recs for i =   345           0
(PID.TID 0000.0001) ctrl-wet 6: no recs for i =   346           0
(PID.TID 0000.0001) ctrl-wet 6: no recs for i =   347           0
(PID.TID 0000.0001) ctrl-wet 6: no recs for i =   348           0
(PID.TID 0000.0001) ctrl-wet 6: no recs for i =   349           0
(PID.TID 0000.0001) ctrl-wet 6: no recs for i =   350           0
(PID.TID 0000.0001) ctrl-wet 6: no recs for i =   351           0
(PID.TID 0000.0001) ctrl-wet 6: no recs for i =   352           0
(PID.TID 0000.0001) ctrl-wet 6: no recs for i =   353           0
(PID.TID 0000.0001) ctrl-wet 6: no recs for i =   354           0
(PID.TID 0000.0001) ctrl-wet 6: no recs for i =   355           0
(PID.TID 0000.0001) ctrl-wet 6: no recs for i =   356           0
(PID.TID 0000.0001) ctrl-wet 6: no recs for i =   357           0
(PID.TID 0000.0001) ctrl-wet 6: no recs for i =   358           0
(PID.TID 0000.0001) ctrl-wet 6: no recs for i =   359           0
(PID.TID 0000.0001) ctrl-wet 6: no recs for i =   360           0
(PID.TID 0000.0001) ctrl-wet 6: no recs for i =   361           0
(PID.TID 0000.0001) ctrl-wet 6: no recs for i =   362           0
(PID.TID 0000.0001) ctrl-wet 6: no recs for i =   363           0
(PID.TID 0000.0001) ctrl-wet 6: no recs for i =   364           0
(PID.TID 0000.0001) ctrl-wet 6: no recs for i =   365           0
(PID.TID 0000.0001) ctrl-wet 6: no recs for i =   366           0
(PID.TID 0000.0001) ctrl-wet 6: no recs for i =   367           0
(PID.TID 0000.0001) ctrl-wet 6: no recs for i =   368           0
(PID.TID 0000.0001) ctrl-wet 6: no recs for i =   369           0
(PID.TID 0000.0001) ctrl-wet 6: no recs for i =   370           0
(PID.TID 0000.0001) ctrl-wet 6: no recs for i =   371           0
(PID.TID 0000.0001) ctrl-wet 6: no recs for i =   372           0
(PID.TID 0000.0001) ctrl-wet 6: no recs for i =   373           0
(PID.TID 0000.0001) ctrl-wet 6: no recs for i =   374           0
(PID.TID 0000.0001) ctrl-wet 6: no recs for i =   375           0
(PID.TID 0000.0001) ctrl-wet 6: no recs for i =   376           0
(PID.TID 0000.0001) ctrl-wet 6: no recs for i =   377           0
(PID.TID 0000.0001) ctrl-wet 6: no recs for i =   378           0
(PID.TID 0000.0001) ctrl-wet 6: no recs for i =   379           0
(PID.TID 0000.0001) ctrl-wet 6: no recs for i =   380           0
(PID.TID 0000.0001) ctrl-wet 6: no recs for i =   381           0
(PID.TID 0000.0001) ctrl-wet 6: no recs for i =   382           0
(PID.TID 0000.0001) ctrl-wet 6: no recs for i =   383           0
(PID.TID 0000.0001) ctrl-wet 6: no recs for i =   384           0
(PID.TID 0000.0001) ctrl-wet 6: no recs for i =   385           0
(PID.TID 0000.0001) ctrl-wet 6: no recs for i =   386           0
(PID.TID 0000.0001) ctrl-wet 6: no recs for i =   387           0
(PID.TID 0000.0001) ctrl-wet 6: no recs for i =   388           0
(PID.TID 0000.0001) ctrl-wet 6: no recs for i =   389           0
(PID.TID 0000.0001) ctrl-wet 6: no recs for i =   390           0
(PID.TID 0000.0001) ctrl-wet 6: no recs for i =   391           0
(PID.TID 0000.0001) ctrl-wet 6: no recs for i =   392           0
(PID.TID 0000.0001) ctrl-wet 6: no recs for i =   393           0
(PID.TID 0000.0001) ctrl-wet 6: no recs for i =   394           0
(PID.TID 0000.0001) ctrl-wet 6: no recs for i =   395           0
(PID.TID 0000.0001) ctrl-wet 6: no recs for i =   396           0
(PID.TID 0000.0001) ctrl-wet 6: no recs for i =   397           0
(PID.TID 0000.0001) ctrl-wet 6: no recs for i =   398           0
(PID.TID 0000.0001) ctrl-wet 6: no recs for i =   399           0
(PID.TID 0000.0001) ctrl-wet 6: no recs for i =   400           0
(PID.TID 0000.0001) ctrl-wet 7: flux          3720
(PID.TID 0000.0001) ctrl-wet 8: atmos         3720
(PID.TID 0000.0001) ctrl-wet -------------------------------------------------
(PID.TID 0000.0001) ctrl-wet 13: global nvarlength for Nr =   23        1650
(PID.TID 0000.0001) ctrl-wet -------------------------------------------------
(PID.TID 0000.0001) ctrl-wet 14: global nWet C/S/W/V k=    1         150         120         129           0
(PID.TID 0000.0001) ctrl-wet 14: global nWet C/S/W/V k=    2         150         120         129           0
(PID.TID 0000.0001) ctrl-wet 14: global nWet C/S/W/V k=    3         150         120         129           0
(PID.TID 0000.0001) ctrl-wet 14: global nWet C/S/W/V k=    4         150         120         129           0
(PID.TID 0000.0001) ctrl-wet 14: global nWet C/S/W/V k=    5         145         116         125           0
(PID.TID 0000.0001) ctrl-wet 14: global nWet C/S/W/V k=    6         140         112         119           0
(PID.TID 0000.0001) ctrl-wet 14: global nWet C/S/W/V k=    7         133         104         111           0
(PID.TID 0000.0001) ctrl-wet 14: global nWet C/S/W/V k=    8         126          98         106           0
(PID.TID 0000.0001) ctrl-wet 14: global nWet C/S/W/V k=    9         115          89          95           0
(PID.TID 0000.0001) ctrl-wet 14: global nWet C/S/W/V k=   10          99          77          82           0
(PID.TID 0000.0001) ctrl-wet 14: global nWet C/S/W/V k=   11          90          68          73           0
(PID.TID 0000.0001) ctrl-wet 14: global nWet C/S/W/V k=   12          82          62          66           0
(PID.TID 0000.0001) ctrl-wet 14: global nWet C/S/W/V k=   13          71          54          57           0
(PID.TID 0000.0001) ctrl-wet 14: global nWet C/S/W/V k=   14          68          52          54           0
(PID.TID 0000.0001) ctrl-wet 14: global nWet C/S/W/V k=   15          58          44          45           0
(PID.TID 0000.0001) ctrl-wet 14: global nWet C/S/W/V k=   16          50          40          40           0
(PID.TID 0000.0001) ctrl-wet 14: global nWet C/S/W/V k=   17          40          31          31           0
(PID.TID 0000.0001) ctrl-wet 14: global nWet C/S/W/V k=   18          30          22          23           0
(PID.TID 0000.0001) ctrl-wet 14: global nWet C/S/W/V k=   19          10           6           6           0
(PID.TID 0000.0001) ctrl-wet 14: global nWet C/S/W/V k=   20           3           2           0           0
(PID.TID 0000.0001) ctrl-wet 14: global nWet C/S/W/V k=   21           0           0           0           0
(PID.TID 0000.0001) ctrl-wet 14: global nWet C/S/W/V k=   22           0           0           0           0
(PID.TID 0000.0001) ctrl-wet 14: global nWet C/S/W/V k=   23           0           0           0           0
(PID.TID 0000.0001) ctrl-wet -------------------------------------------------
(PID.TID 0000.0001) ctrl-wet -------------------------------------------------
(PID.TID 0000.0001) ctrl-wet -------------------------------------------------
(PID.TID 0000.0001) ctrl_init_wet: no. of control variables:            1
(PID.TID 0000.0001) ctrl_init_wet: control vector length:            1650
(PID.TID 0000.0001)  MDS_WRITE_FIELD: it,rec,kS,kL,kH=       0     1  23   1  23 file=maskCtrlC
(PID.TID 0000.0001)  MDS_WRITE_FIELD: it,rec,kS,kL,kH=       0     1  23   1  23 file=maskCtrlW
(PID.TID 0000.0001)  MDS_WRITE_FIELD: it,rec,kS,kL,kH=       0     1  23   1  23 file=maskCtrlS
(PID.TID 0000.0001) 
(PID.TID 0000.0001) // =======================================================
(PID.TID 0000.0001) // control vector configuration  >>> START <<<
(PID.TID 0000.0001) // =======================================================
(PID.TID 0000.0001) 
(PID.TID 0000.0001)  Total number of ocean points per tile:
(PID.TID 0000.0001)  --------------------------------------
(PID.TID 0000.0001)  snx*sny*nr =     7360
(PID.TID 0000.0001) 
(PID.TID 0000.0001)  Number of ocean points per tile:
(PID.TID 0000.0001)  --------------------------------
(PID.TID 0000.0001)  bi,bj,#(c/s/w): 0001 0001 001860 001457 001549
(PID.TID 0000.0001) 
(PID.TID 0000.0001)  Settings of generic controls:
(PID.TID 0000.0001)  -----------------------------
(PID.TID 0000.0001) 
(PID.TID 0000.0001)  -> time variable 2D control, gentim2d no.  1 is in use
(PID.TID 0000.0001)       file       = xx_atemp
(PID.TID 0000.0001)       weight     = ones_64b.bin
(PID.TID 0000.0001)       index      =  0301
(PID.TID 0000.0001)       ncvarindex =  0401
(PID.TID 0000.0001)       period     =  00000000 010000
(PID.TID 0000.0001)       preprocess = noscaling
(PID.TID 0000.0001) 
(PID.TID 0000.0001) // =======================================================
(PID.TID 0000.0001) // control vector configuration  >>> END <<<
(PID.TID 0000.0001) // =======================================================
(PID.TID 0000.0001) 
(PID.TID 0000.0001) ------------------------------------------------------------
(PID.TID 0000.0001) DIAGNOSTICS_SET_LEVELS: done
(PID.TID 0000.0001)  Total Nb of available Diagnostics: ndiagt=   375
(PID.TID 0000.0001)  write list of available Diagnostics to file: available_diagnostics.log
(PID.TID 0000.0001) SETDIAG: Allocate  1 x  1 Levels for Diagnostic #    23 ETAN
(PID.TID 0000.0001) SETDIAG: Allocate  1 x  1 Levels for Diagnostic #   294 SIarea
(PID.TID 0000.0001) SETDIAG: Allocate  1 x  1 Levels for Diagnostic #   297 SIheff
(PID.TID 0000.0001) SETDIAG: Allocate  1 x  1 Levels for Diagnostic #   299 SIhsnow
(PID.TID 0000.0001) SETDIAG: Allocate  1 x  1 Levels for Diagnostic #    25 DETADT2
(PID.TID 0000.0001) SETDIAG: Allocate  1 x  1 Levels for Diagnostic #    73 PHIBOT
(PID.TID 0000.0001) SETDIAG: Allocate  1 x  1 Levels for Diagnostic #    82 sIceLoad
(PID.TID 0000.0001) SETDIAG: Allocate  1 x  1 Levels for Diagnostic #    76 MXLDEPTH
(PID.TID 0000.0001) SETDIAG: Allocate  1 x  1 Levels for Diagnostic #   325 SIatmFW
(PID.TID 0000.0001) SETDIAG: Allocate  1 x  1 Levels for Diagnostic #    85 oceQnet
(PID.TID 0000.0001) SETDIAG: Allocate  1 x  1 Levels for Diagnostic #    83 oceFWflx
(PID.TID 0000.0001) SETDIAG: Allocate  1 x  1 Levels for Diagnostic #    79 oceTAUX
(PID.TID 0000.0001) SETDIAG: Allocate  1 x  1 Levels for Diagnostic #    80 oceTAUY
(PID.TID 0000.0001) SETDIAG: Allocate  1 x  1 Levels for Diagnostic #   311 SIuice
(PID.TID 0000.0001) SETDIAG: Allocate  1 x  1 Levels for Diagnostic #   312 SIvice
(PID.TID 0000.0001) SETDIAG: Allocate  1 x  1 Levels for Diagnostic #    24 ETANSQ
(PID.TID 0000.0001) SETDIAG: Allocate 23 x  1 Levels for Diagnostic #    26 THETA
(PID.TID 0000.0001) SETDIAG: Allocate 23 x  1 Levels for Diagnostic #    27 SALT
(PID.TID 0000.0001) SETDIAG: Allocate 23 x  1 Levels for Diagnostic #    45 UVELMASS
(PID.TID 0000.0001) SETDIAG: Allocate 23 x  1 Levels for Diagnostic #    46 VVELMASS
(PID.TID 0000.0001) SETDIAG: Allocate  1 x  1 Levels for Diagnostic #   224 EXFpreci
(PID.TID 0000.0001) SETDIAG: Allocate  1 x  1 Levels for Diagnostic #   223 EXFevap
(PID.TID 0000.0001) SETDIAG: Allocate  1 x  1 Levels for Diagnostic #   228 EXFroff
(PID.TID 0000.0001) SETDIAG: Allocate  1 x  1 Levels for Diagnostic #   226 EXFempmr
(PID.TID 0000.0001) SETDIAG: Allocate  1 x  1 Levels for Diagnostic #   212 EXFswdn
(PID.TID 0000.0001) SETDIAG: Allocate  1 x  1 Levels for Diagnostic #   211 EXFlwdn
(PID.TID 0000.0001) SETDIAG: Allocate  1 x  1 Levels for Diagnostic #   210 EXFswnet
(PID.TID 0000.0001) SETDIAG: Allocate  1 x  1 Levels for Diagnostic #   209 EXFlwnet
(PID.TID 0000.0001) SETDIAG: Allocate  1 x  1 Levels for Diagnostic #   213 EXFqnet
(PID.TID 0000.0001) SETDIAG: Allocate  1 x  1 Levels for Diagnostic #   221 EXFatemp
(PID.TID 0000.0001) SETDIAG: Allocate  1 x  1 Levels for Diagnostic #   222 EXFaqh
(PID.TID 0000.0001) SETDIAG: Allocate  1 x  1 Levels for Diagnostic #   214 EXFtaux
(PID.TID 0000.0001) SETDIAG: Allocate  1 x  1 Levels for Diagnostic #   215 EXFtauy
(PID.TID 0000.0001) SETDIAG: Allocate  1 x  1 Levels for Diagnostic #   216 EXFuwind
(PID.TID 0000.0001) SETDIAG: Allocate  1 x  1 Levels for Diagnostic #   217 EXFvwind
(PID.TID 0000.0001) SETDIAG: Allocate  1 x  1 Levels for Diagnostic #   227 EXFpress
(PID.TID 0000.0001) SETDIAG: Allocate  1 x  1 Levels for Diagnostic #   207 EXFhs
(PID.TID 0000.0001) SETDIAG: Allocate  1 x  1 Levels for Diagnostic #   208 EXFhl
(PID.TID 0000.0001)   space allocated for all diagnostics:     126 levels
(PID.TID 0000.0001)   set mate pointer for diag #    79  oceTAUX  , Parms: UU      U1 , mate:    80
(PID.TID 0000.0001)   set mate pointer for diag #    80  oceTAUY  , Parms: VV      U1 , mate:    79
(PID.TID 0000.0001)   set mate pointer for diag #   311  SIuice   , Parms: UU      M1 , mate:   312
(PID.TID 0000.0001)   set mate pointer for diag #   312  SIvice   , Parms: VV      M1 , mate:   311
(PID.TID 0000.0001)   set mate pointer for diag #    45  UVELMASS , Parms: UUr     MR , mate:    46
(PID.TID 0000.0001)   set mate pointer for diag #    46  VVELMASS , Parms: VVr     MR , mate:    45
(PID.TID 0000.0001) DIAGNOSTICS_SET_POINTERS: Set levels for Outp.Stream: diags/state_2d_set1
(PID.TID 0000.0001)  Levels:       1.
(PID.TID 0000.0001) DIAGNOSTICS_SET_POINTERS: Set levels for Outp.Stream: diags/state_3d_set1
(PID.TID 0000.0001)  Levels:       1.   2.   3.   4.   5.   6.   7.   8.   9.  10.  11.  12.  13.  14.  15.  16.  17.  18.  19.  20.
(PID.TID 0000.0001)  Levels:      21.  22.  23.
(PID.TID 0000.0001) DIAGNOSTICS_SET_POINTERS: Set levels for Outp.Stream: diags/trsp_3d_set1
(PID.TID 0000.0001)  Levels:       1.   2.   3.   4.   5.   6.   7.   8.   9.  10.  11.  12.  13.  14.  15.  16.  17.  18.  19.  20.
(PID.TID 0000.0001)  Levels:      21.  22.  23.
(PID.TID 0000.0001) DIAGNOSTICS_SET_POINTERS: Set levels for Outp.Stream: diags/exf_zflux_set1
(PID.TID 0000.0001)  Levels:       1.
(PID.TID 0000.0001) DIAGNOSTICS_SET_POINTERS: done
(PID.TID 0000.0001) ------------------------------------------------------------
(PID.TID 0000.0001) DIAGSTATS_SET_REGIONS: define no region
(PID.TID 0000.0001) ------------------------------------------------------------
(PID.TID 0000.0001)   space allocated for all stats-diags:       0 levels
(PID.TID 0000.0001) DIAGSTATS_SET_POINTERS: done
(PID.TID 0000.0001) ------------------------------------------------------------
(PID.TID 0000.0001) %MON fCori_max                    =   1.4210453727344E-04
(PID.TID 0000.0001) %MON fCori_min                    =   1.0666243053630E-04
(PID.TID 0000.0001) %MON fCori_mean                   =   1.2711058365303E-04
(PID.TID 0000.0001) %MON fCori_sd                     =   1.1031533875266E-05
(PID.TID 0000.0001) %MON fCoriG_max                   =   1.4151032568025E-04
(PID.TID 0000.0001) %MON fCoriG_min                   =   1.0491029349513E-04
(PID.TID 0000.0001) %MON fCoriG_mean                  =   1.2591168756569E-04
(PID.TID 0000.0001) %MON fCoriG_sd                    =   1.1383815633153E-05
(PID.TID 0000.0001) %MON fCoriCos_max                 =   9.9464325599212E-05
(PID.TID 0000.0001) %MON fCoriCos_min                 =   3.2807417471054E-05
(PID.TID 0000.0001) %MON fCoriCos_mean                =   6.7585896192312E-05
(PID.TID 0000.0001) %MON fCoriCos_sd                  =   2.0576140902612E-05
(PID.TID 0000.0001) INI_CG2D: CG2D normalisation factor =  1.6094939840939192E-04
(PID.TID 0000.0001) 
(PID.TID 0000.0001) // =======================================================
(PID.TID 0000.0001) // Model configuration
(PID.TID 0000.0001) // =======================================================
(PID.TID 0000.0001) //
(PID.TID 0000.0001) // "Physical" paramters ( PARM01 in namelist )
(PID.TID 0000.0001) //
(PID.TID 0000.0001) buoyancyRelation = /* Type of relation to get Buoyancy */
(PID.TID 0000.0001)               'OCEANIC'
(PID.TID 0000.0001)     ;
(PID.TID 0000.0001) fluidIsAir   =  /* fluid major constituent is Air */
(PID.TID 0000.0001)                   F
(PID.TID 0000.0001)     ;
(PID.TID 0000.0001) fluidIsWater =  /* fluid major constituent is Water */
(PID.TID 0000.0001)                   T
(PID.TID 0000.0001)     ;
(PID.TID 0000.0001) usingPCoords =  /* use p (or p*) vertical coordinate */
(PID.TID 0000.0001)                   F
(PID.TID 0000.0001)     ;
(PID.TID 0000.0001) usingZCoords =  /* use z (or z*) vertical coordinate */
(PID.TID 0000.0001)                   T
(PID.TID 0000.0001)     ;
(PID.TID 0000.0001) tRef =   /* Reference temperature profile ( oC or K ) */
(PID.TID 0000.0001)                 2.400000000000000E+01,      /* K =  1 */
(PID.TID 0000.0001)                 2.300000000000000E+01,      /* K =  2 */
(PID.TID 0000.0001)                 2.200000000000000E+01,      /* K =  3 */
(PID.TID 0000.0001)                 2.100000000000000E+01,      /* K =  4 */
(PID.TID 0000.0001)                 2.000000000000000E+01,      /* K =  5 */
(PID.TID 0000.0001)                 1.900000000000000E+01,      /* K =  6 */
(PID.TID 0000.0001)                 1.800000000000000E+01,      /* K =  7 */
(PID.TID 0000.0001)                 1.700000000000000E+01,      /* K =  8 */
(PID.TID 0000.0001)                 1.600000000000000E+01,      /* K =  9 */
(PID.TID 0000.0001)                 1.500000000000000E+01,      /* K = 10 */
(PID.TID 0000.0001)                 1.400000000000000E+01,      /* K = 11 */
(PID.TID 0000.0001)                 1.300000000000000E+01,      /* K = 12 */
(PID.TID 0000.0001)                 1.200000000000000E+01,      /* K = 13 */
(PID.TID 0000.0001)                 1.100000000000000E+01,      /* K = 14 */
(PID.TID 0000.0001)                 1.000000000000000E+01,      /* K = 15 */
(PID.TID 0000.0001)                 9.000000000000000E+00,      /* K = 16 */
(PID.TID 0000.0001)                 8.000000000000000E+00,      /* K = 17 */
(PID.TID 0000.0001)                 7.000000000000000E+00,      /* K = 18 */
(PID.TID 0000.0001)                 6.000000000000000E+00,      /* K = 19 */
(PID.TID 0000.0001)                 5.000000000000000E+00,      /* K = 20 */
(PID.TID 0000.0001)                 4.000000000000000E+00,      /* K = 21 */
(PID.TID 0000.0001)                 3.000000000000000E+00,      /* K = 22 */
(PID.TID 0000.0001)                 2.000000000000000E+00       /* K = 23 */
(PID.TID 0000.0001)     ;
(PID.TID 0000.0001) sRef =   /* Reference salinity profile ( g/kg ) */
(PID.TID 0000.0001)                 3.465000000000000E+01,      /* K =  1 */
(PID.TID 0000.0001)                 3.475000000000000E+01,      /* K =  2 */
(PID.TID 0000.0001)                 3.482000000000000E+01,      /* K =  3 */
(PID.TID 0000.0001)                 3.487000000000000E+01,      /* K =  4 */
(PID.TID 0000.0001)     2 @  3.490000000000000E+01,             /* K =  5:  6 */
(PID.TID 0000.0001)                 3.486000000000000E+01,      /* K =  7 */
(PID.TID 0000.0001)                 3.478000000000000E+01,      /* K =  8 */
(PID.TID 0000.0001)                 3.469000000000000E+01,      /* K =  9 */
(PID.TID 0000.0001)                 3.460000000000000E+01,      /* K = 10 */
(PID.TID 0000.0001)                 3.458000000000000E+01,      /* K = 11 */
(PID.TID 0000.0001)                 3.462000000000000E+01,      /* K = 12 */
(PID.TID 0000.0001)                 3.468000000000000E+01,      /* K = 13 */
(PID.TID 0000.0001)                 3.472000000000000E+01,      /* K = 14 */
(PID.TID 0000.0001)                 3.473000000000000E+01,      /* K = 15 */
(PID.TID 0000.0001)                 3.474000000000000E+01,      /* K = 16 */
(PID.TID 0000.0001)     2 @  3.473000000000000E+01,             /* K = 17: 18 */
(PID.TID 0000.0001)     2 @  3.472000000000000E+01,             /* K = 19: 20 */
(PID.TID 0000.0001)                 3.471000000000000E+01,      /* K = 21 */
(PID.TID 0000.0001)                 3.470000000000000E+01,      /* K = 22 */
(PID.TID 0000.0001)                 3.469000000000000E+01       /* K = 23 */
(PID.TID 0000.0001)     ;
(PID.TID 0000.0001) rhoRef =   /* Density vertical profile from (Ref,sRef)( kg/m^3 ) */
(PID.TID 0000.0001)                 1.023399597669854E+03,      /* K =  1 */
(PID.TID 0000.0001)                 1.023810240320856E+03,      /* K =  2 */
(PID.TID 0000.0001)                 1.024201435647580E+03,      /* K =  3 */
(PID.TID 0000.0001)                 1.024591510588746E+03,      /* K =  4 */
(PID.TID 0000.0001)                 1.024969611150069E+03,      /* K =  5 */
(PID.TID 0000.0001)                 1.025328017199967E+03,      /* K =  6 */
(PID.TID 0000.0001)                 1.025680833282475E+03,      /* K =  7 */
(PID.TID 0000.0001)                 1.026050051489947E+03,      /* K =  8 */
(PID.TID 0000.0001)                 1.026491970185416E+03,      /* K =  9 */
(PID.TID 0000.0001)                 1.027036952689552E+03,      /* K = 10 */
(PID.TID 0000.0001)                 1.027794852671120E+03,      /* K = 11 */
(PID.TID 0000.0001)                 1.028814168587807E+03,      /* K = 12 */
(PID.TID 0000.0001)                 1.030119722650770E+03,      /* K = 13 */
(PID.TID 0000.0001)                 1.031735154401125E+03,      /* K = 14 */
(PID.TID 0000.0001)                 1.033628649568903E+03,      /* K = 15 */
(PID.TID 0000.0001)                 1.035732830613343E+03,      /* K = 16 */
(PID.TID 0000.0001)                 1.037997052952795E+03,      /* K = 17 */
(PID.TID 0000.0001)                 1.040366267417616E+03,      /* K = 18 */
(PID.TID 0000.0001)                 1.042716568158493E+03,      /* K = 19 */
(PID.TID 0000.0001)                 1.045063813536698E+03,      /* K = 20 */
(PID.TID 0000.0001)                 1.047393250130134E+03,      /* K = 21 */
(PID.TID 0000.0001)                 1.049712998140759E+03,      /* K = 22 */
(PID.TID 0000.0001)                 1.052023490263938E+03       /* K = 23 */
(PID.TID 0000.0001)     ;
(PID.TID 0000.0001) dBdrRef = /* Vertical grad. of reference buoyancy [(m/s/r)^2] */
(PID.TID 0000.0001)                 0.000000000000000E+00,      /* K =  1 */
(PID.TID 0000.0001)                 3.513461801096672E-04,      /* K =  2 */
(PID.TID 0000.0001)                 2.578462793867026E-04,      /* K =  3 */
(PID.TID 0000.0001)                 1.716535447918954E-04,      /* K =  4 */
(PID.TID 0000.0001)                 1.391849606744939E-04,      /* K =  5 */
(PID.TID 0000.0001)                 1.106038973987551E-04,      /* K =  6 */
(PID.TID 0000.0001)                 7.062448315028799E-05,      /* K =  7 */
(PID.TID 0000.0001)                 4.112152780686669E-05,      /* K =  8 */
(PID.TID 0000.0001)                 2.554455911799560E-05,      /* K =  9 */
(PID.TID 0000.0001)                 1.739274227427603E-05,      /* K = 10 */
(PID.TID 0000.0001)                 1.573008010125636E-05,      /* K = 11 */
(PID.TID 0000.0001)                 1.341763357458043E-05,      /* K = 12 */
(PID.TID 0000.0001)                 1.029886793911016E-05,      /* K = 13 */
(PID.TID 0000.0001)                 7.244777660794312E-06,      /* K = 14 */
(PID.TID 0000.0001)                 5.291061202791868E-06,      /* K = 15 */
(PID.TID 0000.0001)                 4.668992652371521E-06,      /* K = 16 */
(PID.TID 0000.0001)                 3.952349989520169E-06,      /* K = 17 */
(PID.TID 0000.0001)                 3.937600045035830E-06,      /* K = 18 */
(PID.TID 0000.0001)                 3.833348475309353E-06,      /* K = 19 */
(PID.TID 0000.0001)                 4.027570774400333E-06,      /* K = 20 */
(PID.TID 0000.0001)                 3.935806005392895E-06,      /* K = 21 */
(PID.TID 0000.0001)                 3.995673930141529E-06,      /* K = 22 */
(PID.TID 0000.0001)                 4.061338744769299E-06       /* K = 23 */
(PID.TID 0000.0001)     ;
(PID.TID 0000.0001) useStrainTensionVisc= /* Use StrainTension Form of Viscous Operator */
(PID.TID 0000.0001)                   F
(PID.TID 0000.0001)     ;
(PID.TID 0000.0001) useVariableVisc = /* Use variable horizontal viscosity */
(PID.TID 0000.0001)                   F
(PID.TID 0000.0001)     ;
(PID.TID 0000.0001) useHarmonicVisc = /* Use harmonic horizontal viscosity */
(PID.TID 0000.0001)                   T
(PID.TID 0000.0001)     ;
(PID.TID 0000.0001) useBiharmonicVisc= /* Use biharmonic horiz.  viscosity */
(PID.TID 0000.0001)                   F
(PID.TID 0000.0001)     ;
(PID.TID 0000.0001) useSmag3D = /* Use isotropic 3-D Smagorinsky viscosity */
(PID.TID 0000.0001)                   F
(PID.TID 0000.0001)     ;
(PID.TID 0000.0001) viscAh  =   /* Lateral harmonic viscosity ( m^2/s ) */
(PID.TID 0000.0001)                 5.000000000000000E+04
(PID.TID 0000.0001)     ;
(PID.TID 0000.0001) viscA4  =   /* Lateral biharmonic viscosity ( m^4/s ) */
(PID.TID 0000.0001)                 0.000000000000000E+00
(PID.TID 0000.0001)     ;
(PID.TID 0000.0001) no_slip_sides =  /* Viscous BCs: No-slip sides */
(PID.TID 0000.0001)                   F
(PID.TID 0000.0001)     ;
(PID.TID 0000.0001) sideDragFactor = /* side-drag scaling factor (non-dim) */
(PID.TID 0000.0001)                 2.000000000000000E+00
(PID.TID 0000.0001)     ;
(PID.TID 0000.0001) viscArNr = /* vertical profile of vertical viscosity ( m^2/s )*/
(PID.TID 0000.0001)    23 @  1.930000000000000E-05              /* K =  1: 23 */
(PID.TID 0000.0001)     ;
(PID.TID 0000.0001) no_slip_bottom =  /* Viscous BCs: No-slip bottom */
(PID.TID 0000.0001)                   T
(PID.TID 0000.0001)     ;
(PID.TID 0000.0001) bottomVisc_pCell = /* Partial-cell in bottom Visc. BC */
(PID.TID 0000.0001)                   F
(PID.TID 0000.0001)     ;
(PID.TID 0000.0001) bottomDragLinear = /* linear bottom-drag coefficient ( m/s ) */
(PID.TID 0000.0001)                 0.000000000000000E+00
(PID.TID 0000.0001)     ;
(PID.TID 0000.0001) bottomDragQuadratic = /* quadratic bottom-drag coefficient (-) */
(PID.TID 0000.0001)                 0.000000000000000E+00
(PID.TID 0000.0001)     ;
(PID.TID 0000.0001) selectBotDragQuadr = /* select quadratic bottom drag options */
(PID.TID 0000.0001)                      -1
(PID.TID 0000.0001)     ;
(PID.TID 0000.0001) diffKhT =   /* Laplacian diffusion of heat laterally ( m^2/s ) */
(PID.TID 0000.0001)                 0.000000000000000E+00
(PID.TID 0000.0001)     ;
(PID.TID 0000.0001) diffK4T =   /* Biharmonic diffusion of heat laterally ( m^4/s ) */
(PID.TID 0000.0001)                 0.000000000000000E+00
(PID.TID 0000.0001)     ;
(PID.TID 0000.0001) diffKhS =   /* Laplacian diffusion of salt laterally ( m^2/s ) */
(PID.TID 0000.0001)                 0.000000000000000E+00
(PID.TID 0000.0001)     ;
(PID.TID 0000.0001) diffK4S =   /* Biharmonic diffusion of salt laterally ( m^4/s ) */
(PID.TID 0000.0001)                 0.000000000000000E+00
(PID.TID 0000.0001)     ;
(PID.TID 0000.0001) diffKrNrT = /* vertical profile of vertical diffusion of Temp ( m^2/s )*/
(PID.TID 0000.0001)    23 @  1.460000000000000E-05              /* K =  1: 23 */
(PID.TID 0000.0001)     ;
(PID.TID 0000.0001) diffKrNrS = /* vertical profile of vertical diffusion of Salt ( m^2/s )*/
(PID.TID 0000.0001)    23 @  1.460000000000000E-05              /* K =  1: 23 */
(PID.TID 0000.0001)     ;
(PID.TID 0000.0001) diffKrBL79surf = /* Surface diffusion for Bryan and Lewis 79 ( m^2/s ) */
(PID.TID 0000.0001)                 0.000000000000000E+00
(PID.TID 0000.0001)     ;
(PID.TID 0000.0001) diffKrBL79deep = /* Deep diffusion for Bryan and Lewis 1979 ( m^2/s ) */
(PID.TID 0000.0001)                 0.000000000000000E+00
(PID.TID 0000.0001)     ;
(PID.TID 0000.0001) diffKrBL79scl = /* Depth scale for Bryan and Lewis 1979 ( m ) */
(PID.TID 0000.0001)                 2.000000000000000E+02
(PID.TID 0000.0001)     ;
(PID.TID 0000.0001) diffKrBL79Ho = /* Turning depth for Bryan and Lewis 1979 ( m ) */
(PID.TID 0000.0001)                -2.000000000000000E+03
(PID.TID 0000.0001)     ;
(PID.TID 0000.0001) ivdc_kappa = /* Implicit Vertical Diffusivity for Convection ( m^2/s) */
(PID.TID 0000.0001)                 0.000000000000000E+00
(PID.TID 0000.0001)     ;
(PID.TID 0000.0001) hMixCriteria=  /* Criteria for mixed-layer diagnostic */
(PID.TID 0000.0001)                -8.000000000000000E-01
(PID.TID 0000.0001)     ;
(PID.TID 0000.0001) dRhoSmall =  /* Parameter for mixed-layer diagnostic */
(PID.TID 0000.0001)                 1.000000000000000E-06
(PID.TID 0000.0001)     ;
(PID.TID 0000.0001) hMixSmooth=  /* Smoothing parameter for mixed-layer diagnostic */
(PID.TID 0000.0001)                 0.000000000000000E+00
(PID.TID 0000.0001)     ;
(PID.TID 0000.0001) eosType =  /* Type of Equation of State */
(PID.TID 0000.0001)               'JMD95Z'
(PID.TID 0000.0001)     ;
(PID.TID 0000.0001) eosRefP0 = /* Reference atmospheric pressure for EOS ( Pa ) */
(PID.TID 0000.0001)                 1.013250000000000E+05
(PID.TID 0000.0001)     ;
(PID.TID 0000.0001) selectP_inEOS_Zc = /* select pressure to use in EOS (0,1,2,3) */
(PID.TID 0000.0001)                       0
(PID.TID 0000.0001)     0= -g*rhoConst*z ; 1= pRef (from tRef,sRef); 2= Hyd P ; 3= Hyd+NH P
(PID.TID 0000.0001)     ;
(PID.TID 0000.0001) surf_pRef = /* Surface reference pressure ( Pa ) */
(PID.TID 0000.0001)                 1.013250000000000E+05
(PID.TID 0000.0001)     ;
(PID.TID 0000.0001) HeatCapacity_Cp =  /* Specific heat capacity ( J/kg/K ) */
(PID.TID 0000.0001)                 3.986000000000000E+03
(PID.TID 0000.0001)     ;
(PID.TID 0000.0001) celsius2K = /* 0 degree Celsius converted to Kelvin ( K ) */
(PID.TID 0000.0001)                 2.731600000000000E+02
(PID.TID 0000.0001)     ;
(PID.TID 0000.0001) rhoConst  = /* Reference density (Boussinesq)  ( kg/m^3 ) */
(PID.TID 0000.0001)                 1.027000000000000E+03
(PID.TID 0000.0001)     ;
(PID.TID 0000.0001) rhoFacC = /* normalized Reference density @ cell-Center (-) */
(PID.TID 0000.0001)    23 @  1.000000000000000E+00              /* K =  1: 23 */
(PID.TID 0000.0001)     ;
(PID.TID 0000.0001) rhoFacF = /* normalized Reference density @ W-Interface (-) */
(PID.TID 0000.0001)    24 @  1.000000000000000E+00              /* K =  1: 24 */
(PID.TID 0000.0001)     ;
(PID.TID 0000.0001) rhoConstFresh = /* Fresh-water reference density ( kg/m^3 ) */
(PID.TID 0000.0001)                 9.998000000000000E+02
(PID.TID 0000.0001)     ;
(PID.TID 0000.0001) gravity =   /* Gravitational acceleration ( m/s^2 ) */
(PID.TID 0000.0001)                 9.815600000000000E+00
(PID.TID 0000.0001)     ;
(PID.TID 0000.0001) gBaro =   /* Barotropic gravity ( m/s^2 ) */
(PID.TID 0000.0001)                 9.815600000000000E+00
(PID.TID 0000.0001)     ;
(PID.TID 0000.0001) gravFacC = /* gravity factor (vs surf.) @ cell-Center (-) */
(PID.TID 0000.0001)    23 @  1.000000000000000E+00              /* K =  1: 23 */
(PID.TID 0000.0001)     ;
(PID.TID 0000.0001) gravFacF = /* gravity factor (vs surf.) @ W-Interface (-) */
(PID.TID 0000.0001)    24 @  1.000000000000000E+00              /* K =  1: 24 */
(PID.TID 0000.0001)     ;
(PID.TID 0000.0001) rotationPeriod =   /* Rotation Period ( s ) */
(PID.TID 0000.0001)                 8.616400000000000E+04
(PID.TID 0000.0001)     ;
(PID.TID 0000.0001) omega =   /* Angular velocity ( rad/s ) */
(PID.TID 0000.0001)                 7.292123516990375E-05
(PID.TID 0000.0001)     ;
(PID.TID 0000.0001) f0 =   /* Reference coriolis parameter ( 1/s ) */
(PID.TID 0000.0001)                 1.000000000000000E-04
(PID.TID 0000.0001)     ;
(PID.TID 0000.0001) beta =   /* Beta ( 1/(m.s) ) */
(PID.TID 0000.0001)                 9.999999999999999E-12
(PID.TID 0000.0001)     ;
(PID.TID 0000.0001) fPrime =   /* Second coriolis parameter ( 1/s ) */
(PID.TID 0000.0001)                 0.000000000000000E+00
(PID.TID 0000.0001)     ;
(PID.TID 0000.0001) rigidLid =   /* Rigid lid on/off flag */
(PID.TID 0000.0001)                   F
(PID.TID 0000.0001)     ;
(PID.TID 0000.0001) implicitFreeSurface =   /* Implicit free surface on/off flag */
(PID.TID 0000.0001)                   T
(PID.TID 0000.0001)     ;
(PID.TID 0000.0001) freeSurfFac =   /* Implicit free surface factor */
(PID.TID 0000.0001)                 1.000000000000000E+00
(PID.TID 0000.0001)     ;
(PID.TID 0000.0001) implicSurfPress =  /* Surface Pressure implicit factor (0-1) */
(PID.TID 0000.0001)                 1.000000000000000E+00
(PID.TID 0000.0001)     ;
(PID.TID 0000.0001) implicDiv2DFlow =  /* Barot. Flow Div. implicit factor (0-1) */
(PID.TID 0000.0001)                 1.000000000000000E+00
(PID.TID 0000.0001)     ;
(PID.TID 0000.0001) uniformLin_PhiSurf = /* use uniform Bo_surf on/off flag */
(PID.TID 0000.0001)                   T
(PID.TID 0000.0001)     ;
(PID.TID 0000.0001) uniformFreeSurfLev = /* free-surface level-index is uniform */
(PID.TID 0000.0001)                   T
(PID.TID 0000.0001)     ;
(PID.TID 0000.0001) sIceLoadFac =  /* scale factor for sIceLoad (0-1) */
(PID.TID 0000.0001)                 1.000000000000000E+00
(PID.TID 0000.0001)     ;
(PID.TID 0000.0001) hFacMin =   /* minimum partial cell factor (hFac) */
(PID.TID 0000.0001)                 1.000000000000000E+00
(PID.TID 0000.0001)     ;
(PID.TID 0000.0001) hFacMinDr = /* minimum partial cell thickness ( m) */
(PID.TID 0000.0001)                 0.000000000000000E+00
(PID.TID 0000.0001)     ;
(PID.TID 0000.0001) exactConserv =  /* Exact Volume Conservation on/off flag */
(PID.TID 0000.0001)                   F
(PID.TID 0000.0001)     ;
(PID.TID 0000.0001) linFSConserveTr = /* Tracer correction for Lin Free Surface on/off flag */
(PID.TID 0000.0001)                   F
(PID.TID 0000.0001)     ;
(PID.TID 0000.0001) nonlinFreeSurf = /* Non-linear Free Surf. options (-1,0,1,2,3)*/
(PID.TID 0000.0001)                       0
(PID.TID 0000.0001)      -1,0= Off ; 1,2,3= On, 2=+rescale gU,gV, 3=+update cg2d solv.
(PID.TID 0000.0001)     ;
(PID.TID 0000.0001) hFacInf =   /* lower threshold for hFac (nonlinFreeSurf only)*/
(PID.TID 0000.0001)                 2.000000000000000E-01
(PID.TID 0000.0001)     ;
(PID.TID 0000.0001) hFacSup =   /* upper threshold for hFac (nonlinFreeSurf only)*/
(PID.TID 0000.0001)                 2.000000000000000E+00
(PID.TID 0000.0001)     ;
(PID.TID 0000.0001) select_rStar = /* r* Vertical coord. options (=0 r coord.; >0 uses r*)*/
(PID.TID 0000.0001)                       0
(PID.TID 0000.0001)     ;
(PID.TID 0000.0001) useRealFreshWaterFlux = /* Real Fresh Water Flux on/off flag*/
(PID.TID 0000.0001)                   F
(PID.TID 0000.0001)     ;
(PID.TID 0000.0001) temp_EvPrRn = /* Temp. of Evap/Prec/R (UNSET=use local T)(oC)*/
(PID.TID 0000.0001)                 1.234567000000000E+05
(PID.TID 0000.0001)     ;
(PID.TID 0000.0001) salt_EvPrRn = /* Salin. of Evap/Prec/R (UNSET=use local S)(g/kg)*/
(PID.TID 0000.0001)                 0.000000000000000E+00
(PID.TID 0000.0001)     ;
(PID.TID 0000.0001) selectAddFluid = /* option for mass source/sink of fluid (=0: off) */
(PID.TID 0000.0001)                       0
(PID.TID 0000.0001)     ;
(PID.TID 0000.0001) temp_addMass = /* Temp. of addMass array (UNSET=use local T)(oC)*/
(PID.TID 0000.0001)                 1.234567000000000E+05
(PID.TID 0000.0001)     ;
(PID.TID 0000.0001) salt_addMass = /* Salin. of addMass array (UNSET=use local S)(g/kg)*/
(PID.TID 0000.0001)                 0.000000000000000E+00
(PID.TID 0000.0001)     ;
(PID.TID 0000.0001) convertFW2Salt = /* convert F.W. Flux to Salt Flux (-1=use local S)(g/kg)*/
(PID.TID 0000.0001)                 3.500000000000000E+01
(PID.TID 0000.0001)     ;
(PID.TID 0000.0001) use3Dsolver = /* use 3-D pressure solver on/off flag */
(PID.TID 0000.0001)                   F
(PID.TID 0000.0001)     ;
(PID.TID 0000.0001) nonHydrostatic =  /* Non-Hydrostatic on/off flag */
(PID.TID 0000.0001)                   F
(PID.TID 0000.0001)     ;
(PID.TID 0000.0001) nh_Am2 = /* Non-Hydrostatic terms scaling factor */
(PID.TID 0000.0001)                 1.000000000000000E+00
(PID.TID 0000.0001)     ;
(PID.TID 0000.0001) implicitNHPress = /* Non-Hyd Pressure implicit factor (0-1)*/
(PID.TID 0000.0001)                 1.000000000000000E+00
(PID.TID 0000.0001)     ;
(PID.TID 0000.0001) selectNHfreeSurf = /* Non-Hyd (free-)Surface option */
(PID.TID 0000.0001)                       0
(PID.TID 0000.0001)     ;
(PID.TID 0000.0001) quasiHydrostatic = /* Quasi-Hydrostatic on/off flag */
(PID.TID 0000.0001)                   F
(PID.TID 0000.0001)     ;
(PID.TID 0000.0001) calc_wVelocity = /* vertical velocity calculation on/off flag */
(PID.TID 0000.0001)                   T
(PID.TID 0000.0001)     ;
(PID.TID 0000.0001) momStepping =  /* Momentum equation on/off flag */
(PID.TID 0000.0001)                   T
(PID.TID 0000.0001)     ;
(PID.TID 0000.0001) vectorInvariantMomentum= /* Vector-Invariant Momentum on/off */
(PID.TID 0000.0001)                   F
(PID.TID 0000.0001)     ;
(PID.TID 0000.0001) momAdvection =  /* Momentum advection on/off flag */
(PID.TID 0000.0001)                   T
(PID.TID 0000.0001)     ;
(PID.TID 0000.0001) momViscosity =  /* Momentum viscosity on/off flag */
(PID.TID 0000.0001)                   T
(PID.TID 0000.0001)     ;
(PID.TID 0000.0001) momImplVertAdv= /* Momentum implicit vert. advection on/off*/
(PID.TID 0000.0001)                   F
(PID.TID 0000.0001)     ;
(PID.TID 0000.0001) implicitViscosity = /* Implicit viscosity on/off flag */
(PID.TID 0000.0001)                   T
(PID.TID 0000.0001)     ;
(PID.TID 0000.0001) selectImplicitDrag= /* Implicit bot Drag options (0,1,2)*/
(PID.TID 0000.0001)                       0
(PID.TID 0000.0001)     0= Expl. ; 1= Impl. on provis. Vel ; 2= Fully Impl (with surf.P)
(PID.TID 0000.0001)     ;
(PID.TID 0000.0001) metricTerms =  /* metric-Terms on/off flag */
(PID.TID 0000.0001)                   T
(PID.TID 0000.0001)     ;
(PID.TID 0000.0001) useNHMTerms = /* Non-Hydrostatic Metric-Terms on/off */
(PID.TID 0000.0001)                   F
(PID.TID 0000.0001)     ;
(PID.TID 0000.0001) selectCoriMap = /* Coriolis Map options (0,1,2,3)*/
(PID.TID 0000.0001)                       2
(PID.TID 0000.0001)     0= f-Plane ; 1= Beta-Plane ; 2= Spherical ; 3= read from file
(PID.TID 0000.0001)     ;
(PID.TID 0000.0001) use3dCoriolis = /* 3-D Coriolis on/off flag */
(PID.TID 0000.0001)                   F
(PID.TID 0000.0001)     ;
(PID.TID 0000.0001) useCoriolis =  /* Coriolis on/off flag */
(PID.TID 0000.0001)                   T
(PID.TID 0000.0001)     ;
(PID.TID 0000.0001) useCDscheme =  /* CD scheme on/off flag */
(PID.TID 0000.0001)                   T
(PID.TID 0000.0001)     ;
(PID.TID 0000.0001) selectCoriScheme= /* Scheme selector for Coriolis-Term */
(PID.TID 0000.0001)                       0
(PID.TID 0000.0001)    = 0 : original discretization (simple averaging, no hFac)
(PID.TID 0000.0001)    = 1 : Wet-point averaging (Jamar & Ozer 1986)
(PID.TID 0000.0001)    = 2 : energy conserving scheme (no hFac weight)
(PID.TID 0000.0001)    = 3 : energy conserving scheme using Wet-point averaging
(PID.TID 0000.0001)     ;
(PID.TID 0000.0001) momForcing =  /* Momentum forcing on/off flag */
(PID.TID 0000.0001)                   T
(PID.TID 0000.0001)     ;
(PID.TID 0000.0001) momTidalForcing = /* Momentum Tidal forcing on/off flag */
(PID.TID 0000.0001)                   T
(PID.TID 0000.0001)     ;
(PID.TID 0000.0001) momPressureForcing =  /* Momentum pressure term on/off flag */
(PID.TID 0000.0001)                   T
(PID.TID 0000.0001)     ;
(PID.TID 0000.0001) implicitIntGravWave= /* Implicit Internal Gravity Wave flag */
(PID.TID 0000.0001)                   F
(PID.TID 0000.0001)     ;
(PID.TID 0000.0001) staggerTimeStep =    /* Stagger time stepping on/off flag */
(PID.TID 0000.0001)                   T
(PID.TID 0000.0001)     ;
(PID.TID 0000.0001) doResetHFactors = /* reset thickness factors @ each time-step */
(PID.TID 0000.0001)                   F
(PID.TID 0000.0001)     ;
(PID.TID 0000.0001) multiDimAdvection =  /* enable/disable Multi-Dim Advection */
(PID.TID 0000.0001)                   T
(PID.TID 0000.0001)     ;
(PID.TID 0000.0001) useMultiDimAdvec =   /* Multi-Dim Advection is/is-not used */
(PID.TID 0000.0001)                   T
(PID.TID 0000.0001)     ;
(PID.TID 0000.0001) implicitDiffusion = /* Implicit Diffusion on/off flag */
(PID.TID 0000.0001)                   T
(PID.TID 0000.0001)     ;
(PID.TID 0000.0001) tempStepping =  /* Temperature equation on/off flag */
(PID.TID 0000.0001)                   T
(PID.TID 0000.0001)     ;
(PID.TID 0000.0001) tempAdvection = /* Temperature advection on/off flag */
(PID.TID 0000.0001)                   T
(PID.TID 0000.0001)     ;
(PID.TID 0000.0001) tempImplVertAdv = /* Temp. implicit vert. advection on/off */
(PID.TID 0000.0001)                   F
(PID.TID 0000.0001)     ;
(PID.TID 0000.0001) tempForcing  =  /* Temperature forcing on/off flag */
(PID.TID 0000.0001)                   T
(PID.TID 0000.0001)     ;
(PID.TID 0000.0001) doThetaClimRelax = /* apply SST relaxation on/off flag */
(PID.TID 0000.0001)                   F
(PID.TID 0000.0001)     ;
(PID.TID 0000.0001) tempIsActiveTr = /* Temp. is a dynamically Active Tracer */
(PID.TID 0000.0001)                   T
(PID.TID 0000.0001)     ;
(PID.TID 0000.0001) saltStepping =  /* Salinity equation on/off flag */
(PID.TID 0000.0001)                   T
(PID.TID 0000.0001)     ;
(PID.TID 0000.0001) saltAdvection = /* Salinity advection on/off flag */
(PID.TID 0000.0001)                   T
(PID.TID 0000.0001)     ;
(PID.TID 0000.0001) saltImplVertAdv = /* Sali. implicit vert. advection on/off */
(PID.TID 0000.0001)                   F
(PID.TID 0000.0001)     ;
(PID.TID 0000.0001) saltForcing  =  /* Salinity forcing on/off flag */
(PID.TID 0000.0001)                   T
(PID.TID 0000.0001)     ;
(PID.TID 0000.0001) doSaltClimRelax = /* apply SSS relaxation on/off flag */
(PID.TID 0000.0001)                   T
(PID.TID 0000.0001)     ;
(PID.TID 0000.0001) saltIsActiveTr = /* Salt  is a dynamically Active Tracer */
(PID.TID 0000.0001)                   T
(PID.TID 0000.0001)     ;
(PID.TID 0000.0001)  readBinaryPrec = /* Precision used for reading binary files */
(PID.TID 0000.0001)                      32
(PID.TID 0000.0001)     ;
(PID.TID 0000.0001) writeBinaryPrec = /* Precision used for writing binary files */
(PID.TID 0000.0001)                      32
(PID.TID 0000.0001)     ;
(PID.TID 0000.0001)  rwSuffixType =   /* select format of mds file suffix */
(PID.TID 0000.0001)                       0
(PID.TID 0000.0001)    = 0 : myIter (I10.10) ;   = 1 : 100*myTime (100th sec) ;
(PID.TID 0000.0001)    = 2 : myTime (seconds);   = 3 : myTime/360 (10th of hr);
(PID.TID 0000.0001)    = 4 : myTime/3600 (hours)
(PID.TID 0000.0001)     ;
(PID.TID 0000.0001)  globalFiles = /* write "global" (=not per tile) files */
(PID.TID 0000.0001)                   F
(PID.TID 0000.0001)     ;
(PID.TID 0000.0001)  useSingleCpuIO = /* only master MPI process does I/O */
(PID.TID 0000.0001)                   T
(PID.TID 0000.0001)     ;
(PID.TID 0000.0001)  useSingleCpuInput = /* only master process reads input */
(PID.TID 0000.0001)                   T
(PID.TID 0000.0001)     ;
(PID.TID 0000.0001) /* debLev[*]  : level of debug & auxiliary message printing */
(PID.TID 0000.0001) debLevZero =  0 ; /* level of disabled aux. msg printing */
(PID.TID 0000.0001)    debLevA =  1 ; /* level of minimum  aux. msg printing */
(PID.TID 0000.0001)    debLevB =  2 ; /* level of low aux. print (report read-file opening)*/
(PID.TID 0000.0001)    debLevC =  3 ; /* level of moderate debug prt (most pkgs debug msg) */
(PID.TID 0000.0001)    debLevD =  4 ; /* level of enhanced debug prt (add DEBUG_STATS prt) */
(PID.TID 0000.0001)    debLevE =  5 ; /* level of extensive debug printing */
(PID.TID 0000.0001) debugLevel =  /* select debug printing level */
(PID.TID 0000.0001)                       4
(PID.TID 0000.0001)     ;
(PID.TID 0000.0001)  plotLevel =  /* select PLOT_FIELD printing level */
(PID.TID 0000.0001)                       4
(PID.TID 0000.0001)     ;
(PID.TID 0000.0001) //
(PID.TID 0000.0001) // Elliptic solver(s) paramters ( PARM02 in namelist )
(PID.TID 0000.0001) //
(PID.TID 0000.0001) cg2dMaxIters =   /* Upper limit on 2d con. grad iterations  */
(PID.TID 0000.0001)                    1000
(PID.TID 0000.0001)     ;
(PID.TID 0000.0001) cg2dMinItersNSA =   /* Minimum number of iterations of 2d con. grad solver  */
(PID.TID 0000.0001)                       0
(PID.TID 0000.0001)     ;
(PID.TID 0000.0001) cg2dUseMinResSol= /* use cg2d last-iter(=0) / min-resid.(=1) solution */
(PID.TID 0000.0001)                       0
(PID.TID 0000.0001)     ;
(PID.TID 0000.0001) cg2dTargetResidual =   /* 2d con. grad target residual  */
(PID.TID 0000.0001)                 1.000000000000000E-13
(PID.TID 0000.0001)     ;
(PID.TID 0000.0001) cg2dTargetResWunit =   /* CG2d target residual [W units] */
(PID.TID 0000.0001)                -1.000000000000000E+00
(PID.TID 0000.0001)     ;
(PID.TID 0000.0001) cg2dPreCondFreq =   /* Freq. for updating cg2d preconditioner */
(PID.TID 0000.0001)                       1
(PID.TID 0000.0001)     ;
(PID.TID 0000.0001) useSRCGSolver =  /* use single reduction CG solver(s) */
(PID.TID 0000.0001)                   F
(PID.TID 0000.0001)     ;
(PID.TID 0000.0001) useNSACGSolver =  /* use not-self-adjoint CG solver */
(PID.TID 0000.0001)                   F
(PID.TID 0000.0001)     ;
(PID.TID 0000.0001) printResidualFreq = /* Freq. for printing CG residual */
(PID.TID 0000.0001)                       0
(PID.TID 0000.0001)     ;
(PID.TID 0000.0001) //
(PID.TID 0000.0001) // Time stepping paramters ( PARM03 in namelist )
(PID.TID 0000.0001) //
(PID.TID 0000.0001) deltaTMom =   /* Momentum equation timestep ( s ) */
(PID.TID 0000.0001)                 3.600000000000000E+03
(PID.TID 0000.0001)     ;
(PID.TID 0000.0001) deltaTFreeSurf = /* FreeSurface equation timestep ( s ) */
(PID.TID 0000.0001)                 3.600000000000000E+03
(PID.TID 0000.0001)     ;
(PID.TID 0000.0001) dTtracerLev =  /* Tracer equation timestep ( s ) */
(PID.TID 0000.0001)    23 @  3.600000000000000E+03              /* K =  1: 23 */
(PID.TID 0000.0001)     ;
(PID.TID 0000.0001) deltaTClock  =   /* Model clock timestep ( s ) */
(PID.TID 0000.0001)                 3.600000000000000E+03
(PID.TID 0000.0001)     ;
(PID.TID 0000.0001) cAdjFreq =   /* Convective adjustment interval ( s ) */
(PID.TID 0000.0001)                 0.000000000000000E+00
(PID.TID 0000.0001)     ;
(PID.TID 0000.0001) momForcingOutAB = /* =1: take Momentum Forcing out of Adams-Bash. stepping */
(PID.TID 0000.0001)                       1
(PID.TID 0000.0001)     ;
(PID.TID 0000.0001) tracForcingOutAB = /* =1: take T,S,pTr Forcing out of Adams-Bash. stepping */
(PID.TID 0000.0001)                       1
(PID.TID 0000.0001)     ;
(PID.TID 0000.0001) momDissip_In_AB = /* put Dissipation Tendency in Adams-Bash. stepping */
(PID.TID 0000.0001)                   T
(PID.TID 0000.0001)     ;
(PID.TID 0000.0001) doAB_onGtGs = /* apply AB on Tendencies (rather than on T,S)*/
(PID.TID 0000.0001)                   T
(PID.TID 0000.0001)     ;
(PID.TID 0000.0001) abEps =   /* Adams-Bashforth-2 stabilizing weight */
(PID.TID 0000.0001)                 1.000000000000000E-01
(PID.TID 0000.0001)     ;
(PID.TID 0000.0001) applyExchUV_early = /* Apply EXCH to U,V earlier in time-step */
(PID.TID 0000.0001)                   F
(PID.TID 0000.0001)     ;
(PID.TID 0000.0001) tauCD =   /* CD coupling time-scale ( s ) */
(PID.TID 0000.0001)                 1.728000000000000E+05
(PID.TID 0000.0001)     ;
(PID.TID 0000.0001) rCD =   /* Normalised CD coupling parameter */
(PID.TID 0000.0001)                 9.791666666666666E-01
(PID.TID 0000.0001)     ;
(PID.TID 0000.0001) epsAB_CD = /* AB-2 stabilizing weight for CD-scheme*/
(PID.TID 0000.0001)                 1.000000000000000E-01
(PID.TID 0000.0001)     ;
(PID.TID 0000.0001) pickupStrictlyMatch= /* stop if pickup do not strictly match */
(PID.TID 0000.0001)                   T
(PID.TID 0000.0001)     ;
(PID.TID 0000.0001) nIter0   =   /* Run starting timestep number */
(PID.TID 0000.0001)                       5
(PID.TID 0000.0001)     ;
(PID.TID 0000.0001) nTimeSteps = /* Number of timesteps */
(PID.TID 0000.0001)                       4
(PID.TID 0000.0001)     ;
(PID.TID 0000.0001) nEndIter =   /* Run ending timestep number */
(PID.TID 0000.0001)                       9
(PID.TID 0000.0001)     ;
(PID.TID 0000.0001) baseTime =   /* Model base time ( s ) */
(PID.TID 0000.0001)                 0.000000000000000E+00
(PID.TID 0000.0001)     ;
(PID.TID 0000.0001) startTime =  /* Run start time ( s ) */
(PID.TID 0000.0001)                 1.800000000000000E+04
(PID.TID 0000.0001)     ;
(PID.TID 0000.0001) endTime  =   /* Integration ending time ( s ) */
(PID.TID 0000.0001)                 3.240000000000000E+04
(PID.TID 0000.0001)     ;
(PID.TID 0000.0001) pChkPtFreq = /* Permanent restart/pickup file interval ( s ) */
(PID.TID 0000.0001)                 3.600000000000000E+03
(PID.TID 0000.0001)     ;
(PID.TID 0000.0001) chkPtFreq  = /* Rolling restart/pickup file interval ( s ) */
(PID.TID 0000.0001)                 0.000000000000000E+00
(PID.TID 0000.0001)     ;
(PID.TID 0000.0001) pickup_write_mdsio =   /* Model IO flag. */
(PID.TID 0000.0001)                   T
(PID.TID 0000.0001)     ;
(PID.TID 0000.0001) pickup_read_mdsio =   /* Model IO flag. */
(PID.TID 0000.0001)                   T
(PID.TID 0000.0001)     ;
(PID.TID 0000.0001) pickup_write_mnc =   /* Model IO flag. */
(PID.TID 0000.0001)                   F
(PID.TID 0000.0001)     ;
(PID.TID 0000.0001) pickup_read_mnc =   /* Model IO flag. */
(PID.TID 0000.0001)                   F
(PID.TID 0000.0001)     ;
(PID.TID 0000.0001) writePickupAtEnd =   /* Model IO flag. */
(PID.TID 0000.0001)                   T
(PID.TID 0000.0001)     ;
(PID.TID 0000.0001) dumpFreq =   /* Model state write out interval ( s ). */
(PID.TID 0000.0001)                 0.000000000000000E+00
(PID.TID 0000.0001)     ;
(PID.TID 0000.0001) dumpInitAndLast= /* write out Initial & Last iter. model state */
(PID.TID 0000.0001)                   T
(PID.TID 0000.0001)     ;
(PID.TID 0000.0001) snapshot_mdsio =   /* Model IO flag. */
(PID.TID 0000.0001)                   T
(PID.TID 0000.0001)     ;
(PID.TID 0000.0001) snapshot_mnc =   /* Model IO flag. */
(PID.TID 0000.0001)                   F
(PID.TID 0000.0001)     ;
(PID.TID 0000.0001) monitorFreq =   /* Monitor output interval ( s ). */
(PID.TID 0000.0001)                 1.000000000000000E+00
(PID.TID 0000.0001)     ;
(PID.TID 0000.0001) monitorSelect = /* select group of variables to monitor */
(PID.TID 0000.0001)                       3
(PID.TID 0000.0001)     ;
(PID.TID 0000.0001) monitor_stdio =   /* Model IO flag. */
(PID.TID 0000.0001)                   T
(PID.TID 0000.0001)     ;
(PID.TID 0000.0001) monitor_mnc =   /* Model IO flag. */
(PID.TID 0000.0001)                   F
(PID.TID 0000.0001)     ;
(PID.TID 0000.0001) externForcingPeriod =   /* forcing period (s) */
(PID.TID 0000.0001)                 0.000000000000000E+00
(PID.TID 0000.0001)     ;
(PID.TID 0000.0001) externForcingCycle =   /* period of the cyle (s). */
(PID.TID 0000.0001)                 0.000000000000000E+00
(PID.TID 0000.0001)     ;
(PID.TID 0000.0001) tauThetaClimRelax =   /* relaxation time scale (s) */
(PID.TID 0000.0001)                 0.000000000000000E+00
(PID.TID 0000.0001)     ;
(PID.TID 0000.0001) tauSaltClimRelax =   /* relaxation time scale (s) */
(PID.TID 0000.0001)                 4.142330000000000E+06
(PID.TID 0000.0001)     ;
(PID.TID 0000.0001) latBandClimRelax =   /* max. Lat. where relaxation */
(PID.TID 0000.0001)                 1.800000000000000E+02
(PID.TID 0000.0001)     ;
(PID.TID 0000.0001) //
(PID.TID 0000.0001) // Gridding paramters ( PARM04 in namelist )
(PID.TID 0000.0001) //
(PID.TID 0000.0001) usingCartesianGrid = /* Cartesian coordinates flag ( True/False ) */
(PID.TID 0000.0001)                   F
(PID.TID 0000.0001)     ;
(PID.TID 0000.0001) usingCylindricalGrid = /* Cylindrical coordinates flag ( True/False ) */
(PID.TID 0000.0001)                   F
(PID.TID 0000.0001)     ;
(PID.TID 0000.0001) usingSphericalPolarGrid = /* Spherical coordinates flag ( True/False ) */
(PID.TID 0000.0001)                   T
(PID.TID 0000.0001)     ;
(PID.TID 0000.0001) usingCurvilinearGrid = /* Curvilinear coordinates flag ( True/False ) */
(PID.TID 0000.0001)                   F
(PID.TID 0000.0001)     ;
(PID.TID 0000.0001) useMin4hFacEdges = /* set hFacW,S as minimum of adjacent hFacC factor */
(PID.TID 0000.0001)                   F
(PID.TID 0000.0001)     ;
(PID.TID 0000.0001) interViscAr_pCell = /* account for partial-cell in interior vert. viscosity */
(PID.TID 0000.0001)                   F
(PID.TID 0000.0001)     ;
(PID.TID 0000.0001) interDiffKr_pCell = /* account for partial-cell in interior vert. diffusion */
(PID.TID 0000.0001)                   F
(PID.TID 0000.0001)     ;
(PID.TID 0000.0001) pCellMix_select = /* option to enhance mixing near surface & bottom */
(PID.TID 0000.0001)                       0
(PID.TID 0000.0001)     ;
(PID.TID 0000.0001) selectSigmaCoord = /* Hybrid-Sigma Vert. Coordinate option */
(PID.TID 0000.0001)                       0
(PID.TID 0000.0001)     ;
(PID.TID 0000.0001) rSigmaBnd = /* r/sigma transition ( units of r ==  m ) */
(PID.TID 0000.0001)                 1.234567000000000E+05
(PID.TID 0000.0001)     ;
(PID.TID 0000.0001) rkSign =   /* index orientation relative to vertical coordinate */
(PID.TID 0000.0001)                -1.000000000000000E+00
(PID.TID 0000.0001)     ;
(PID.TID 0000.0001) gravitySign = /* gravity orientation relative to vertical coordinate */
(PID.TID 0000.0001)                -1.000000000000000E+00
(PID.TID 0000.0001)     ;
(PID.TID 0000.0001) seaLev_Z =  /* reference height of sea-level [m] */
(PID.TID 0000.0001)                 0.000000000000000E+00
(PID.TID 0000.0001)     ;
(PID.TID 0000.0001) top_Pres =  /* reference pressure at the top [Pa] */
(PID.TID 0000.0001)                 0.000000000000000E+00
(PID.TID 0000.0001)     ;
(PID.TID 0000.0001) mass2rUnit = /* convert mass per unit area [kg/m2] to r-units [m] */
(PID.TID 0000.0001)                 9.737098344693282E-04
(PID.TID 0000.0001)     ;
(PID.TID 0000.0001) rUnit2mass = /* convert r-units [m] to mass per unit area [kg/m2] */
(PID.TID 0000.0001)                 1.027000000000000E+03
(PID.TID 0000.0001)     ;
(PID.TID 0000.0001) drC =   /* C spacing ( units of r ) */
(PID.TID 0000.0001)                 5.000000000000000E+00,      /* K =  1 */
(PID.TID 0000.0001)                 1.000000000000000E+01,      /* K =  2 */
(PID.TID 0000.0001)                 1.250000000000000E+01,      /* K =  3 */
(PID.TID 0000.0001)                 1.750000000000000E+01,      /* K =  4 */
(PID.TID 0000.0001)                 2.000000000000000E+01,      /* K =  5 */
(PID.TID 0000.0001)                 2.250000000000000E+01,      /* K =  6 */
(PID.TID 0000.0001)                 3.000000000000000E+01,      /* K =  7 */
(PID.TID 0000.0001)                 4.250000000000000E+01,      /* K =  8 */
(PID.TID 0000.0001)                 6.250000000000000E+01,      /* K =  9 */
(PID.TID 0000.0001)                 8.750000000000000E+01,      /* K = 10 */
(PID.TID 0000.0001)                 1.250000000000000E+02,      /* K = 11 */
(PID.TID 0000.0001)                 1.750000000000000E+02,      /* K = 12 */
(PID.TID 0000.0001)                 2.375000000000000E+02,      /* K = 13 */
(PID.TID 0000.0001)                 3.125000000000000E+02,      /* K = 14 */
(PID.TID 0000.0001)                 3.825000000000000E+02,      /* K = 15 */
(PID.TID 0000.0001)                 4.325000000000000E+02,      /* K = 16 */
(PID.TID 0000.0001)                 4.750000000000000E+02,      /* K = 17 */
(PID.TID 0000.0001)     6 @  5.000000000000000E+02,             /* K = 18: 23 */
(PID.TID 0000.0001)                 2.500000000000000E+02       /* K = 24 */
(PID.TID 0000.0001)     ;
(PID.TID 0000.0001) drF =   /* W spacing ( units of r ) */
(PID.TID 0000.0001)     2 @  1.000000000000000E+01,             /* K =  1:  2 */
(PID.TID 0000.0001)                 1.500000000000000E+01,      /* K =  3 */
(PID.TID 0000.0001)     2 @  2.000000000000000E+01,             /* K =  4:  5 */
(PID.TID 0000.0001)                 2.500000000000000E+01,      /* K =  6 */
(PID.TID 0000.0001)                 3.500000000000000E+01,      /* K =  7 */
(PID.TID 0000.0001)                 5.000000000000000E+01,      /* K =  8 */
(PID.TID 0000.0001)                 7.500000000000000E+01,      /* K =  9 */
(PID.TID 0000.0001)                 1.000000000000000E+02,      /* K = 10 */
(PID.TID 0000.0001)                 1.500000000000000E+02,      /* K = 11 */
(PID.TID 0000.0001)                 2.000000000000000E+02,      /* K = 12 */
(PID.TID 0000.0001)                 2.750000000000000E+02,      /* K = 13 */
(PID.TID 0000.0001)                 3.500000000000000E+02,      /* K = 14 */
(PID.TID 0000.0001)                 4.150000000000000E+02,      /* K = 15 */
(PID.TID 0000.0001)                 4.500000000000000E+02,      /* K = 16 */
(PID.TID 0000.0001)     7 @  5.000000000000000E+02              /* K = 17: 23 */
(PID.TID 0000.0001)     ;
(PID.TID 0000.0001) delX = /* U spacing ( m - cartesian, degrees - spherical ) */
(PID.TID 0000.0001)    20 @  2.000000000000000E+00              /* I =  1: 20 */
(PID.TID 0000.0001)     ;
(PID.TID 0000.0001) delY = /* V spacing ( m - cartesian, degrees - spherical ) */
(PID.TID 0000.0001)    16 @  2.000000000000000E+00              /* J =  1: 16 */
(PID.TID 0000.0001)     ;
(PID.TID 0000.0001) xgOrigin = /* X-axis origin of West  edge (cartesian: m, lat-lon: deg) */
(PID.TID 0000.0001)                 2.800000000000000E+02
(PID.TID 0000.0001)     ;
(PID.TID 0000.0001) ygOrigin = /* Y-axis origin of South edge (cartesian: m, lat-lon: deg) */
(PID.TID 0000.0001)                 4.600000000000000E+01
(PID.TID 0000.0001)     ;
(PID.TID 0000.0001) rSphere =  /* Radius ( ignored - cartesian, m - spherical ) */
(PID.TID 0000.0001)                 6.371000000000000E+06
(PID.TID 0000.0001)     ;
(PID.TID 0000.0001) deepAtmosphere = /* Deep/Shallow Atmosphere flag (True/False) */
(PID.TID 0000.0001)                   F
(PID.TID 0000.0001)     ;
(PID.TID 0000.0001) xC =  /* xC(:,1,:,1) : P-point X coord ( deg. or m if cartesian) */
(PID.TID 0000.0001)                 2.810000000000000E+02,      /* I =  1 */
(PID.TID 0000.0001)                 2.830000000000000E+02,      /* I =  2 */
(PID.TID 0000.0001)                 2.850000000000000E+02,      /* I =  3 */
(PID.TID 0000.0001)                 2.870000000000000E+02,      /* I =  4 */
(PID.TID 0000.0001)                 2.890000000000000E+02,      /* I =  5 */
(PID.TID 0000.0001)                 2.910000000000000E+02,      /* I =  6 */
(PID.TID 0000.0001)                 2.930000000000000E+02,      /* I =  7 */
(PID.TID 0000.0001)                 2.950000000000000E+02,      /* I =  8 */
(PID.TID 0000.0001)                 2.970000000000000E+02,      /* I =  9 */
(PID.TID 0000.0001)                 2.990000000000000E+02,      /* I = 10 */
(PID.TID 0000.0001)                 3.010000000000000E+02,      /* I = 11 */
(PID.TID 0000.0001)                 3.030000000000000E+02,      /* I = 12 */
(PID.TID 0000.0001)                 3.050000000000000E+02,      /* I = 13 */
(PID.TID 0000.0001)                 3.070000000000000E+02,      /* I = 14 */
(PID.TID 0000.0001)                 3.090000000000000E+02,      /* I = 15 */
(PID.TID 0000.0001)                 3.110000000000000E+02,      /* I = 16 */
(PID.TID 0000.0001)                 3.130000000000000E+02,      /* I = 17 */
(PID.TID 0000.0001)                 3.150000000000000E+02,      /* I = 18 */
(PID.TID 0000.0001)                 3.170000000000000E+02,      /* I = 19 */
(PID.TID 0000.0001)                 3.190000000000000E+02       /* I = 20 */
(PID.TID 0000.0001)     ;
(PID.TID 0000.0001) yC =  /* yC(1,:,1,:) : P-point Y coord ( deg. or m if cartesian) */
(PID.TID 0000.0001)                 4.700000000000000E+01,      /* J =  1 */
(PID.TID 0000.0001)                 4.900000000000000E+01,      /* J =  2 */
(PID.TID 0000.0001)                 5.100000000000000E+01,      /* J =  3 */
(PID.TID 0000.0001)                 5.300000000000000E+01,      /* J =  4 */
(PID.TID 0000.0001)                 5.500000000000000E+01,      /* J =  5 */
(PID.TID 0000.0001)                 5.700000000000000E+01,      /* J =  6 */
(PID.TID 0000.0001)                 5.900000000000000E+01,      /* J =  7 */
(PID.TID 0000.0001)                 6.100000000000000E+01,      /* J =  8 */
(PID.TID 0000.0001)                 6.300000000000000E+01,      /* J =  9 */
(PID.TID 0000.0001)                 6.500000000000000E+01,      /* J = 10 */
(PID.TID 0000.0001)                 6.700000000000000E+01,      /* J = 11 */
(PID.TID 0000.0001)                 6.900000000000000E+01,      /* J = 12 */
(PID.TID 0000.0001)                 7.100000000000000E+01,      /* J = 13 */
(PID.TID 0000.0001)                 7.300000000000000E+01,      /* J = 14 */
(PID.TID 0000.0001)                 7.500000000000000E+01,      /* J = 15 */
(PID.TID 0000.0001)                 7.700000000000000E+01       /* J = 16 */
(PID.TID 0000.0001)     ;
(PID.TID 0000.0001) rcoord = /* P-point R coordinate (  units of r ) */
(PID.TID 0000.0001)                -5.000000000000000E+00,      /* K =  1 */
(PID.TID 0000.0001)                -1.500000000000000E+01,      /* K =  2 */
(PID.TID 0000.0001)                -2.750000000000000E+01,      /* K =  3 */
(PID.TID 0000.0001)                -4.500000000000000E+01,      /* K =  4 */
(PID.TID 0000.0001)                -6.500000000000000E+01,      /* K =  5 */
(PID.TID 0000.0001)                -8.750000000000000E+01,      /* K =  6 */
(PID.TID 0000.0001)                -1.175000000000000E+02,      /* K =  7 */
(PID.TID 0000.0001)                -1.600000000000000E+02,      /* K =  8 */
(PID.TID 0000.0001)                -2.225000000000000E+02,      /* K =  9 */
(PID.TID 0000.0001)                -3.100000000000000E+02,      /* K = 10 */
(PID.TID 0000.0001)                -4.350000000000000E+02,      /* K = 11 */
(PID.TID 0000.0001)                -6.100000000000000E+02,      /* K = 12 */
(PID.TID 0000.0001)                -8.475000000000000E+02,      /* K = 13 */
(PID.TID 0000.0001)                -1.160000000000000E+03,      /* K = 14 */
(PID.TID 0000.0001)                -1.542500000000000E+03,      /* K = 15 */
(PID.TID 0000.0001)                -1.975000000000000E+03,      /* K = 16 */
(PID.TID 0000.0001)                -2.450000000000000E+03,      /* K = 17 */
(PID.TID 0000.0001)                -2.950000000000000E+03,      /* K = 18 */
(PID.TID 0000.0001)                -3.450000000000000E+03,      /* K = 19 */
(PID.TID 0000.0001)                -3.950000000000000E+03,      /* K = 20 */
(PID.TID 0000.0001)                -4.450000000000000E+03,      /* K = 21 */
(PID.TID 0000.0001)                -4.950000000000000E+03,      /* K = 22 */
(PID.TID 0000.0001)                -5.450000000000000E+03       /* K = 23 */
(PID.TID 0000.0001)     ;
(PID.TID 0000.0001) rF =   /* W-Interf. R coordinate (  units of r ) */
(PID.TID 0000.0001)                 0.000000000000000E+00,      /* K =  1 */
(PID.TID 0000.0001)                -1.000000000000000E+01,      /* K =  2 */
(PID.TID 0000.0001)                -2.000000000000000E+01,      /* K =  3 */
(PID.TID 0000.0001)                -3.500000000000000E+01,      /* K =  4 */
(PID.TID 0000.0001)                -5.500000000000000E+01,      /* K =  5 */
(PID.TID 0000.0001)                -7.500000000000000E+01,      /* K =  6 */
(PID.TID 0000.0001)                -1.000000000000000E+02,      /* K =  7 */
(PID.TID 0000.0001)                -1.350000000000000E+02,      /* K =  8 */
(PID.TID 0000.0001)                -1.850000000000000E+02,      /* K =  9 */
(PID.TID 0000.0001)                -2.600000000000000E+02,      /* K = 10 */
(PID.TID 0000.0001)                -3.600000000000000E+02,      /* K = 11 */
(PID.TID 0000.0001)                -5.100000000000000E+02,      /* K = 12 */
(PID.TID 0000.0001)                -7.100000000000000E+02,      /* K = 13 */
(PID.TID 0000.0001)                -9.850000000000000E+02,      /* K = 14 */
(PID.TID 0000.0001)                -1.335000000000000E+03,      /* K = 15 */
(PID.TID 0000.0001)                -1.750000000000000E+03,      /* K = 16 */
(PID.TID 0000.0001)                -2.200000000000000E+03,      /* K = 17 */
(PID.TID 0000.0001)                -2.700000000000000E+03,      /* K = 18 */
(PID.TID 0000.0001)                -3.200000000000000E+03,      /* K = 19 */
(PID.TID 0000.0001)                -3.700000000000000E+03,      /* K = 20 */
(PID.TID 0000.0001)                -4.200000000000000E+03,      /* K = 21 */
(PID.TID 0000.0001)                -4.700000000000000E+03,      /* K = 22 */
(PID.TID 0000.0001)                -5.200000000000000E+03,      /* K = 23 */
(PID.TID 0000.0001)                -5.700000000000000E+03       /* K = 24 */
(PID.TID 0000.0001)     ;
(PID.TID 0000.0001) deepFacC = /* deep-model grid factor @ cell-Center (-) */
(PID.TID 0000.0001)    23 @  1.000000000000000E+00              /* K =  1: 23 */
(PID.TID 0000.0001)     ;
(PID.TID 0000.0001) deepFacF = /* deep-model grid factor @ W-Interface (-) */
(PID.TID 0000.0001)    24 @  1.000000000000000E+00              /* K =  1: 24 */
(PID.TID 0000.0001)     ;
(PID.TID 0000.0001) rotateGrid = /* use rotated grid ( True/False ) */
(PID.TID 0000.0001)                   F
(PID.TID 0000.0001)     ;
(PID.TID 0000.0001) phiEuler = /* Euler angle, rotation about original z-coordinate [rad] */
(PID.TID 0000.0001)                 0.000000000000000E+00
(PID.TID 0000.0001)     ;
(PID.TID 0000.0001) thetaEuler = /* Euler angle, rotation about new x-coordinate [rad] */
(PID.TID 0000.0001)                 0.000000000000000E+00
(PID.TID 0000.0001)     ;
(PID.TID 0000.0001) psiEuler = /* Euler angle, rotation about new z-coordinate [rad] */
(PID.TID 0000.0001)                 0.000000000000000E+00
(PID.TID 0000.0001)     ;
(PID.TID 0000.0001) dxF =  /* dxF(:,1,:,1) ( units: m ) */
(PID.TID 0000.0001)    20 @  1.516695152377178E+05              /* I =  1: 20 */
(PID.TID 0000.0001)     ;
(PID.TID 0000.0001) dxF =  /* dxF(1,:,1,:) ( units: m ) */
(PID.TID 0000.0001)                 1.516695152377178E+05,      /* J =  1 */
(PID.TID 0000.0001)                 1.459008712061998E+05,      /* J =  2 */
(PID.TID 0000.0001)                 1.399544694374234E+05,      /* J =  3 */
(PID.TID 0000.0001)                 1.338375547059708E+05,      /* J =  4 */
(PID.TID 0000.0001)                 1.275575795302039E+05,      /* J =  5 */
(PID.TID 0000.0001)                 1.211221950925184E+05,      /* J =  6 */
(PID.TID 0000.0001)                 1.145392419175564E+05,      /* J =  7 */
(PID.TID 0000.0001)                 1.078167403197357E+05,      /* J =  8 */
(PID.TID 0000.0001)                 1.009628806317309E+05,      /* J =  9 */
(PID.TID 0000.0001)                 9.398601322581600E+04,      /* J = 10 */
(PID.TID 0000.0001)                 8.689463834022089E+04,      /* J = 11 */
(PID.TID 0000.0001)                 7.969739572290122E+04,      /* J = 12 */
(PID.TID 0000.0001)                 7.240305410533583E+04,      /* J = 13 */
(PID.TID 0000.0001)                 6.502050051917860E+04,      /* J = 14 */
(PID.TID 0000.0001)                 5.755872946877908E+04,      /* J = 15 */
(PID.TID 0000.0001)                 5.002683197276442E+04       /* J = 16 */
(PID.TID 0000.0001)     ;
(PID.TID 0000.0001) dyF =  /* dyF(:,1,:,1) ( units: m ) */
(PID.TID 0000.0001)    20 @  2.223898532891175E+05              /* I =  1: 20 */
(PID.TID 0000.0001)     ;
(PID.TID 0000.0001) dyF =  /* dyF(1,:,1,:) ( units: m ) */
(PID.TID 0000.0001)    16 @  2.223898532891175E+05              /* J =  1: 16 */
(PID.TID 0000.0001)     ;
(PID.TID 0000.0001) dxG =  /* dxG(:,1,:,1) ( units: m ) */
(PID.TID 0000.0001)    20 @  1.544849730924338E+05              /* I =  1: 20 */
(PID.TID 0000.0001)     ;
(PID.TID 0000.0001) dxG =  /* dxG(1,:,1,:) ( units: m ) */
(PID.TID 0000.0001)                 1.544849730924338E+05,      /* J =  1 */
(PID.TID 0000.0001)                 1.488078573794047E+05,      /* J =  2 */
(PID.TID 0000.0001)                 1.429494422142520E+05,      /* J =  3 */
(PID.TID 0000.0001)                 1.369168651734347E+05,      /* J =  4 */
(PID.TID 0000.0001)                 1.307174760228300E+05,      /* J =  5 */
(PID.TID 0000.0001)                 1.243588277631750E+05,      /* J =  6 */
(PID.TID 0000.0001)                 1.178486674278995E+05,      /* J =  7 */
(PID.TID 0000.0001)                 1.111949266445588E+05,      /* J =  8 */
(PID.TID 0000.0001)                 1.044057119713670E+05,      /* J =  9 */
(PID.TID 0000.0001)                 9.748929502060510E+04,      /* J = 10 */
(PID.TID 0000.0001)                 9.045410238093534E+04,      /* J = 11 */
(PID.TID 0000.0001)                 8.330870535090075E+04,      /* J = 12 */
(PID.TID 0000.0001)                 7.606180949611843E+04,      /* J = 13 */
(PID.TID 0000.0001)                 6.872224404288862E+04,      /* J = 14 */
(PID.TID 0000.0001)                 6.129895112114272E+04,      /* J = 15 */
(PID.TID 0000.0001)                 5.380097486983529E+04       /* J = 16 */
(PID.TID 0000.0001)     ;
(PID.TID 0000.0001) dyG =  /* dyG(:,1,:,1) ( units: m ) */
(PID.TID 0000.0001)    20 @  2.223898532891175E+05              /* I =  1: 20 */
(PID.TID 0000.0001)     ;
(PID.TID 0000.0001) dyG =  /* dyG(1,:,1,:) ( units: m ) */
(PID.TID 0000.0001)    16 @  2.223898532891175E+05              /* J =  1: 16 */
(PID.TID 0000.0001)     ;
(PID.TID 0000.0001) dxC =  /* dxC(:,1,:,1) ( units: m ) */
(PID.TID 0000.0001)    20 @  1.516695152377178E+05              /* I =  1: 20 */
(PID.TID 0000.0001)     ;
(PID.TID 0000.0001) dxC =  /* dxC(1,:,1,:) ( units: m ) */
(PID.TID 0000.0001)                 1.516695152377178E+05,      /* J =  1 */
(PID.TID 0000.0001)                 1.459008712061998E+05,      /* J =  2 */
(PID.TID 0000.0001)                 1.399544694374234E+05,      /* J =  3 */
(PID.TID 0000.0001)                 1.338375547059708E+05,      /* J =  4 */
(PID.TID 0000.0001)                 1.275575795302039E+05,      /* J =  5 */
(PID.TID 0000.0001)                 1.211221950925184E+05,      /* J =  6 */
(PID.TID 0000.0001)                 1.145392419175564E+05,      /* J =  7 */
(PID.TID 0000.0001)                 1.078167403197357E+05,      /* J =  8 */
(PID.TID 0000.0001)                 1.009628806317309E+05,      /* J =  9 */
(PID.TID 0000.0001)                 9.398601322581600E+04,      /* J = 10 */
(PID.TID 0000.0001)                 8.689463834022089E+04,      /* J = 11 */
(PID.TID 0000.0001)                 7.969739572290122E+04,      /* J = 12 */
(PID.TID 0000.0001)                 7.240305410533583E+04,      /* J = 13 */
(PID.TID 0000.0001)                 6.502050051917860E+04,      /* J = 14 */
(PID.TID 0000.0001)                 5.755872946877908E+04,      /* J = 15 */
(PID.TID 0000.0001)                 5.002683197276442E+04       /* J = 16 */
(PID.TID 0000.0001)     ;
(PID.TID 0000.0001) dyC =  /* dyC(:,1,:,1) ( units: m ) */
(PID.TID 0000.0001)    20 @  2.223898532891175E+05              /* I =  1: 20 */
(PID.TID 0000.0001)     ;
(PID.TID 0000.0001) dyC =  /* dyC(1,:,1,:) ( units: m ) */
(PID.TID 0000.0001)    16 @  2.223898532891175E+05              /* J =  1: 16 */
(PID.TID 0000.0001)     ;
(PID.TID 0000.0001) dxV =  /* dxV(:,1,:,1) ( units: m ) */
(PID.TID 0000.0001)    20 @  1.544849730924338E+05              /* I =  1: 20 */
(PID.TID 0000.0001)     ;
(PID.TID 0000.0001) dxV =  /* dxV(1,:,1,:) ( units: m ) */
(PID.TID 0000.0001)                 1.544849730924338E+05,      /* J =  1 */
(PID.TID 0000.0001)                 1.488078573794047E+05,      /* J =  2 */
(PID.TID 0000.0001)                 1.429494422142520E+05,      /* J =  3 */
(PID.TID 0000.0001)                 1.369168651734347E+05,      /* J =  4 */
(PID.TID 0000.0001)                 1.307174760228300E+05,      /* J =  5 */
(PID.TID 0000.0001)                 1.243588277631750E+05,      /* J =  6 */
(PID.TID 0000.0001)                 1.178486674278995E+05,      /* J =  7 */
(PID.TID 0000.0001)                 1.111949266445588E+05,      /* J =  8 */
(PID.TID 0000.0001)                 1.044057119713670E+05,      /* J =  9 */
(PID.TID 0000.0001)                 9.748929502060510E+04,      /* J = 10 */
(PID.TID 0000.0001)                 9.045410238093534E+04,      /* J = 11 */
(PID.TID 0000.0001)                 8.330870535090075E+04,      /* J = 12 */
(PID.TID 0000.0001)                 7.606180949611843E+04,      /* J = 13 */
(PID.TID 0000.0001)                 6.872224404288862E+04,      /* J = 14 */
(PID.TID 0000.0001)                 6.129895112114272E+04,      /* J = 15 */
(PID.TID 0000.0001)                 5.380097486983529E+04       /* J = 16 */
(PID.TID 0000.0001)     ;
(PID.TID 0000.0001) dyU =  /* dyU(:,1,:,1) ( units: m ) */
(PID.TID 0000.0001)    20 @  2.223898532891175E+05              /* I =  1: 20 */
(PID.TID 0000.0001)     ;
(PID.TID 0000.0001) dyU =  /* dyU(1,:,1,:) ( units: m ) */
(PID.TID 0000.0001)    16 @  2.223898532891175E+05              /* J =  1: 16 */
(PID.TID 0000.0001)     ;
(PID.TID 0000.0001) rA  =  /* rA (:,1,:,1) ( units: m^2 ) */
(PID.TID 0000.0001)    20 @  3.372804882275630E+10              /* I =  1: 20 */
(PID.TID 0000.0001)     ;
(PID.TID 0000.0001) rA  =  /* rA (1,:,1,:) ( units: m^2 ) */
(PID.TID 0000.0001)                 3.372804882275630E+10,      /* J =  1 */
(PID.TID 0000.0001)                 3.244522605358471E+10,      /* J =  2 */
(PID.TID 0000.0001)                 3.112287377427108E+10,      /* J =  3 */
(PID.TID 0000.0001)                 2.976260306737421E+10,      /* J =  4 */
(PID.TID 0000.0001)                 2.836607121321784E+10,      /* J =  5 */
(PID.TID 0000.0001)                 2.693497967074614E+10,      /* J =  6 */
(PID.TID 0000.0001)                 2.547107200456116E+10,      /* J =  7 */
(PID.TID 0000.0001)                 2.397613176065682E+10,      /* J =  8 */
(PID.TID 0000.0001)                 2.245198029344191E+10,      /* J =  9 */
(PID.TID 0000.0001)                 2.090047454670193E+10,      /* J = 10 */
(PID.TID 0000.0001)                 1.932350479119821E+10,      /* J = 11 */
(PID.TID 0000.0001)                 1.772299232166360E+10,      /* J = 12 */
(PID.TID 0000.0001)                 1.610088711600342E+10,      /* J = 13 */
(PID.TID 0000.0001)                 1.445916545954351E+10,      /* J = 14 */
(PID.TID 0000.0001)                 1.279982753723494E+10,      /* J = 15 */
(PID.TID 0000.0001)                 1.112489499673417E+10       /* J = 16 */
(PID.TID 0000.0001)     ;
(PID.TID 0000.0001) rAw =  /* rAw(:,1,:,1) ( units: m^2 ) */
(PID.TID 0000.0001)    20 @  3.372804882275630E+10              /* I =  1: 20 */
(PID.TID 0000.0001)     ;
(PID.TID 0000.0001) rAw =  /* rAw(1,:,1,:) ( units: m^2 ) */
(PID.TID 0000.0001)                 3.372804882275630E+10,      /* J =  1 */
(PID.TID 0000.0001)                 3.244522605358471E+10,      /* J =  2 */
(PID.TID 0000.0001)                 3.112287377427108E+10,      /* J =  3 */
(PID.TID 0000.0001)                 2.976260306737421E+10,      /* J =  4 */
(PID.TID 0000.0001)                 2.836607121321784E+10,      /* J =  5 */
(PID.TID 0000.0001)                 2.693497967074614E+10,      /* J =  6 */
(PID.TID 0000.0001)                 2.547107200456116E+10,      /* J =  7 */
(PID.TID 0000.0001)                 2.397613176065682E+10,      /* J =  8 */
(PID.TID 0000.0001)                 2.245198029344191E+10,      /* J =  9 */
(PID.TID 0000.0001)                 2.090047454670193E+10,      /* J = 10 */
(PID.TID 0000.0001)                 1.932350479119821E+10,      /* J = 11 */
(PID.TID 0000.0001)                 1.772299232166360E+10,      /* J = 12 */
(PID.TID 0000.0001)                 1.610088711600342E+10,      /* J = 13 */
(PID.TID 0000.0001)                 1.445916545954351E+10,      /* J = 14 */
(PID.TID 0000.0001)                 1.279982753723494E+10,      /* J = 15 */
(PID.TID 0000.0001)                 1.112489499673417E+10       /* J = 16 */
(PID.TID 0000.0001)     ;
(PID.TID 0000.0001) rAs =  /* rAs(:,1,:,1) ( units: m^2 ) */
(PID.TID 0000.0001)    20 @  3.435414629417918E+10              /* I =  1: 20 */
(PID.TID 0000.0001)     ;
(PID.TID 0000.0001) rAs =  /* rAs(1,:,1,:) ( units: m^2 ) */
(PID.TID 0000.0001)                 3.435414629417918E+10,      /* J =  1 */
(PID.TID 0000.0001)                 3.309167746093097E+10,      /* J =  2 */
(PID.TID 0000.0001)                 3.178889151607872E+10,      /* J =  3 */
(PID.TID 0000.0001)                 3.044737570361747E+10,      /* J =  4 */
(PID.TID 0000.0001)                 2.906876445392020E+10,      /* J =  5 */
(PID.TID 0000.0001)                 2.765473739243563E+10,      /* J =  6 */
(PID.TID 0000.0001)                 2.620701729332415E+10,      /* J =  7 */
(PID.TID 0000.0001)                 2.472736798052209E+10,      /* J =  8 */
(PID.TID 0000.0001)                 2.321759217879512E+10,      /* J =  9 */
(PID.TID 0000.0001)                 2.167952931739416E+10,      /* J = 10 */
(PID.TID 0000.0001)                 2.011505328899539E+10,      /* J = 11 */
(PID.TID 0000.0001)                 1.852607016665020E+10,      /* J = 12 */
(PID.TID 0000.0001)                 1.691451588152944E+10,      /* J = 13 */
(PID.TID 0000.0001)                 1.528235386428863E+10,      /* J = 14 */
(PID.TID 0000.0001)                 1.363157265293026E+10,      /* J = 15 */
(PID.TID 0000.0001)                 1.196418347007692E+10       /* J = 16 */
(PID.TID 0000.0001)     ;
(PID.TID 0000.0001) globalArea = /* Integrated horizontal Area (m^2) */
(PID.TID 0000.0001)                 3.562528105304879E+12
(PID.TID 0000.0001)     ;
(PID.TID 0000.0001) // =======================================================
(PID.TID 0000.0001) // End of Model config. summary
(PID.TID 0000.0001) // =======================================================
(PID.TID 0000.0001) 
(PID.TID 0000.0001) == Packages configuration : Check & print summary ==
(PID.TID 0000.0001) 
(PID.TID 0000.0001) KPP_CHECK: #define ALLOW_KPP
(PID.TID 0000.0001)  kpp_freq = /* frequency of KPP calculation */
(PID.TID 0000.0001)                 3.600000000000000E+03
(PID.TID 0000.0001)     ;
(PID.TID 0000.0001) KPP_ghatUseTotalDiffus= /* non-local term fct of total diffus */
(PID.TID 0000.0001)                   T
(PID.TID 0000.0001)     ;
(PID.TID 0000.0001) KPPuseDoubleDiff = /* include double diffusive contrib */
(PID.TID 0000.0001)                   F
(PID.TID 0000.0001)     ;
(PID.TID 0000.0001) LimitHblStable = /* limits depth of hbl if stable cond.*/
(PID.TID 0000.0001)                   T
(PID.TID 0000.0001)     ;
(PID.TID 0000.0001)  minKPPhbl = /* minimum KPPhbl value [m] */
(PID.TID 0000.0001)                 5.000000000000000E+00
(PID.TID 0000.0001)     ;
(PID.TID 0000.0001)  epsln     = /* constant [-] */
(PID.TID 0000.0001)                 9.999999999999999E-21
(PID.TID 0000.0001)     ;
(PID.TID 0000.0001)  phepsi    = /* constant [-] */
(PID.TID 0000.0001)                 1.000000000000000E-10
(PID.TID 0000.0001)     ;
(PID.TID 0000.0001)  epsilon   = /* constant [-] */
(PID.TID 0000.0001)                 1.000000000000000E-01
(PID.TID 0000.0001)     ;
(PID.TID 0000.0001)  vonk      = /* Von Karmans constant [-] */
(PID.TID 0000.0001)                 4.000000000000000E-01
(PID.TID 0000.0001)     ;
(PID.TID 0000.0001)  dB_dz     = /* maximum N^2 in mixed layer [s^-2] */
(PID.TID 0000.0001)                 5.200000000000000E-05
(PID.TID 0000.0001)     ;
(PID.TID 0000.0001)  conc1     = /* scalar constant [-] */
(PID.TID 0000.0001)                 5.000000000000000E+00
(PID.TID 0000.0001)     ;
(PID.TID 0000.0001)  conam     = /* scalar constant [-] */
(PID.TID 0000.0001)                 1.257000000000000E+00
(PID.TID 0000.0001)     ;
(PID.TID 0000.0001)  concm     = /* scalar constant [-] */
(PID.TID 0000.0001)                 8.380000000000001E+00
(PID.TID 0000.0001)     ;
(PID.TID 0000.0001)  conc2     = /* scalar constant [-] */
(PID.TID 0000.0001)                 1.600000000000000E+01
(PID.TID 0000.0001)     ;
(PID.TID 0000.0001)  conas     = /* scalar constant [-] */
(PID.TID 0000.0001)                -2.886000000000000E+01
(PID.TID 0000.0001)     ;
(PID.TID 0000.0001)  concs     = /* scalar constant [-] */
(PID.TID 0000.0001)                 9.895999999999999E+01
(PID.TID 0000.0001)     ;
(PID.TID 0000.0001)  conc3     = /* scalar constant [-] */
(PID.TID 0000.0001)                 1.600000000000000E+01
(PID.TID 0000.0001)     ;
(PID.TID 0000.0001)  zetam     = /* scalar constant [-] */
(PID.TID 0000.0001)                -2.000000000000000E-01
(PID.TID 0000.0001)     ;
(PID.TID 0000.0001)  zetas     = /* scalar constant [-] */
(PID.TID 0000.0001)                -1.000000000000000E+00
(PID.TID 0000.0001)     ;
(PID.TID 0000.0001)  Ricr      = /* critical bulk Richardson Number [-] */
(PID.TID 0000.0001)                 3.000000000000000E-01
(PID.TID 0000.0001)     ;
(PID.TID 0000.0001)  cekman    = /* coeff for Ekman depth [-] */
(PID.TID 0000.0001)                 7.000000000000000E-01
(PID.TID 0000.0001)     ;
(PID.TID 0000.0001)  cmonob    = /* coeff for Monin-Obukhov depth [-] */
(PID.TID 0000.0001)                 1.000000000000000E+00
(PID.TID 0000.0001)     ;
(PID.TID 0000.0001)  concv     = /* buoyancy freq ratio [-] */
(PID.TID 0000.0001)                 1.800000000000000E+00
(PID.TID 0000.0001)     ;
(PID.TID 0000.0001)  hbf       = /* solar radiation depth ratio [-] */
(PID.TID 0000.0001)                 1.000000000000000E+00
(PID.TID 0000.0001)     ;
(PID.TID 0000.0001)  zmin      = /* minimum for zehat in table [m3/s3] */
(PID.TID 0000.0001)                -4.000000000000000E-07
(PID.TID 0000.0001)     ;
(PID.TID 0000.0001)  zmax      = /* maximum for zehat in table [m3/s3] */
(PID.TID 0000.0001)                 0.000000000000000E+00
(PID.TID 0000.0001)     ;
(PID.TID 0000.0001)  umin      = /* minimum for ustar in table [m/s] */
(PID.TID 0000.0001)                 0.000000000000000E+00
(PID.TID 0000.0001)     ;
(PID.TID 0000.0001)  umax      = /* maximum for ustar in table [m/s] */
(PID.TID 0000.0001)                 4.000000000000000E-02
(PID.TID 0000.0001)     ;
(PID.TID 0000.0001) num_v_smooth_Ri = /* number of vertical smoothing */
(PID.TID 0000.0001)                       0
(PID.TID 0000.0001)     ;
(PID.TID 0000.0001)  Riinfty   = /* shear instability Ri number limit [-] */
(PID.TID 0000.0001)                 7.000000000000000E-01
(PID.TID 0000.0001)     ;
(PID.TID 0000.0001)  BVSQcon   = /* Brunt-Vaisala squared (=N^2) [s^-2] */
(PID.TID 0000.0001)                -2.000000000000000E-05
(PID.TID 0000.0001)     ;
(PID.TID 0000.0001)  difm0     = /* max viscosity from shear instab. [m2/s] */
(PID.TID 0000.0001)                 5.000000000000000E-03
(PID.TID 0000.0001)     ;
(PID.TID 0000.0001)  difs0     = /* max diffusiv. from shear instab. [m2/s] */
(PID.TID 0000.0001)                 5.000000000000000E-03
(PID.TID 0000.0001)     ;
(PID.TID 0000.0001)  dift0     = /* max diffusiv. from shear instab. [m2/s] */
(PID.TID 0000.0001)                 5.000000000000000E-03
(PID.TID 0000.0001)     ;
(PID.TID 0000.0001)  difmcon   = /* convective viscosity [m2/s] */
(PID.TID 0000.0001)                 1.000000000000000E-01
(PID.TID 0000.0001)     ;
(PID.TID 0000.0001)  difscon   = /* convective diffusiv. [m2/s] */
(PID.TID 0000.0001)                 1.000000000000000E-01
(PID.TID 0000.0001)     ;
(PID.TID 0000.0001)  diftcon   = /* convective diffusiv. [m2/s] */
(PID.TID 0000.0001)                 1.000000000000000E-01
(PID.TID 0000.0001)     ;
(PID.TID 0000.0001)  Rrho0     = /* double diffusion density ratio [-] */
(PID.TID 0000.0001)                 1.900000000000000E+00
(PID.TID 0000.0001)     ;
(PID.TID 0000.0001)  dsfmax    = /* max diffusiv. for salt fingering [m2/s] */
(PID.TID 0000.0001)                 1.000000000000000E-02
(PID.TID 0000.0001)     ;
(PID.TID 0000.0001)  cstar     = /* coeff for non-locak transport [-] */
(PID.TID 0000.0001)                 1.000000000000000E+01
(PID.TID 0000.0001)     ;
(PID.TID 0000.0001) KPPwriteState = /* write KPP fields to file */
(PID.TID 0000.0001)                   T
(PID.TID 0000.0001)     ;
(PID.TID 0000.0001)  kpp_dumpFreq = /* dump freq of KPP output */
(PID.TID 0000.0001)                 0.000000000000000E+00
(PID.TID 0000.0001)     ;
(PID.TID 0000.0001)  kpp_taveFreq = /* time-averaging freq of KPP output */
(PID.TID 0000.0001)                 0.000000000000000E+00
(PID.TID 0000.0001)     ;
(PID.TID 0000.0001) 
(PID.TID 0000.0001) GMREDI_CHECK: #define GMREDI
(PID.TID 0000.0001) GM_AdvForm =     /* if FALSE => use SkewFlux Form */
(PID.TID 0000.0001)                   F
(PID.TID 0000.0001)     ;
(PID.TID 0000.0001) GM_InMomAsStress = /* if TRUE => apply as Eddy Stress */
(PID.TID 0000.0001)                   F
(PID.TID 0000.0001)     ;
(PID.TID 0000.0001) GM_AdvSeparate = /* Calc Bolus & Euler Adv. separately */
(PID.TID 0000.0001)                   F
(PID.TID 0000.0001)     ;
(PID.TID 0000.0001) GM_ExtraDiag =   /* Tensor Extra Diag (line 1&2) non 0 */
(PID.TID 0000.0001)                   F
(PID.TID 0000.0001)     ;
(PID.TID 0000.0001) GM_isopycK =    /* Background Isopyc. Diffusivity [m^2/s] */
(PID.TID 0000.0001)                 1.000000000000000E+03
(PID.TID 0000.0001)     ;
(PID.TID 0000.0001) GM_skewflx*K =  /* Background GM_SkewFlx Diffusivity [m^2/s] */
(PID.TID 0000.0001)                 1.000000000000000E+03
(PID.TID 0000.0001)     ;
(PID.TID 0000.0001) GM_advec*K =    /* Backg. GM-Advec(=Bolus) Diffusivity [m^2/s]*/
(PID.TID 0000.0001)                 0.000000000000000E+00
(PID.TID 0000.0001)     ;
(PID.TID 0000.0001) GM_Kmin_horiz = /* Minimum Horizontal Diffusivity [m^2/s] */
(PID.TID 0000.0001)                 5.000000000000000E+01
(PID.TID 0000.0001)     ;
(PID.TID 0000.0001) GM_Visbeck_alpha = /* Visbeck alpha coeff. [-] */
(PID.TID 0000.0001)                 0.000000000000000E+00
(PID.TID 0000.0001)     ;
(PID.TID 0000.0001) GM_Small_Number =  /* epsilon used in slope calc */
(PID.TID 0000.0001)                 9.999999999999999E-21
(PID.TID 0000.0001)     ;
(PID.TID 0000.0001) GM_slopeSqCutoff = /* Slope^2 cut-off value */
(PID.TID 0000.0001)                 1.000000000000000E+08
(PID.TID 0000.0001)     ;
(PID.TID 0000.0001) GM_taper_scheme =  /* Type of Tapering/Clipping scheme */
(PID.TID 0000.0001)               'dm95                                    '
(PID.TID 0000.0001)     ;
(PID.TID 0000.0001) GM_maxSlope =  /* Maximum Slope (Tapering/Clipping) */
(PID.TID 0000.0001)                 1.000000000000000E-02
(PID.TID 0000.0001)     ;
(PID.TID 0000.0001) GM_facTrL2dz = /* Minimum Trans.Layer Thick. (factor of dz) */
(PID.TID 0000.0001)                 1.000000000000000E+00
(PID.TID 0000.0001)     ;
(PID.TID 0000.0001) GM_facTrL2ML = /* Max.Trans.Layer Thick. (factor of MxL Depth)*/
(PID.TID 0000.0001)                 5.000000000000000E+00
(PID.TID 0000.0001)     ;
(PID.TID 0000.0001) GM_maxTransLay = /* Maximum Transition Layer Thickness [m] */
(PID.TID 0000.0001)                 5.000000000000000E+02
(PID.TID 0000.0001)     ;
(PID.TID 0000.0001) GM_UseBVP = /* if TRUE => use bvp a la Ferrari et al. (2010) */
(PID.TID 0000.0001)                   F
(PID.TID 0000.0001)     ;
(PID.TID 0000.0001) GM_BVP_ModeNumber = /* Vertical mode number for BVP wave speed */
(PID.TID 0000.0001)                       1
(PID.TID 0000.0001)     ;
(PID.TID 0000.0001) GM_BVP_cMin = /* Minimum wave speed for BVP [m/s] */
(PID.TID 0000.0001)                 1.000000000000000E-01
(PID.TID 0000.0001)     ;
(PID.TID 0000.0001) GM_useSubMeso = /* if TRUE => use Sub-Meso param. (B.Fox-Kemper) */
(PID.TID 0000.0001)                   F
(PID.TID 0000.0001)     ;
(PID.TID 0000.0001) subMeso_Ceff = /* efficiency coeff. of Mixed-Layer Eddies [-] */
(PID.TID 0000.0001)                 7.000000000000001E-02
(PID.TID 0000.0001)     ;
(PID.TID 0000.0001) subMeso_invTau = /* inverse of Sub-Meso mixing time-scale [/s] */
(PID.TID 0000.0001)                 2.000000000000000E-06
(PID.TID 0000.0001)     ;
(PID.TID 0000.0001) subMeso_LfMin = /* minimum length-scale "Lf" [m] */
(PID.TID 0000.0001)                 1.000000000000000E+03
(PID.TID 0000.0001)     ;
(PID.TID 0000.0001) subMeso_Lmax = /* maximum grid-scale length [m] */
(PID.TID 0000.0001)                 1.100000000000000E+05
(PID.TID 0000.0001)     ;
(PID.TID 0000.0001) GM_useLeithQG = /* if TRUE => add QG Leith viscosity to GMRedi tensor */
(PID.TID 0000.0001)                   F
(PID.TID 0000.0001)     ;
(PID.TID 0000.0001) EXF_CHECK: #define ALLOW_EXF
(PID.TID 0000.0001) SEAICE_CHECK: #define ALLOW_SEAICE
(PID.TID 0000.0001) CTRL_CHECK:  --> Starts to check CTRL set-up
(PID.TID 0000.0001) CTRL_CHECK:  <-- Ends Normally
(PID.TID 0000.0001) 
(PID.TID 0000.0001) COST_CHECK: #define ALLOW_COST
(PID.TID 0000.0001) GRDCHK_CHECK: grdchk package
(PID.TID 0000.0001) etaday defined by gencost   0
(PID.TID 0000.0001) GAD_CHECK: #define ALLOW_GENERIC_ADVDIFF
(PID.TID 0000.0001) // =======================================================
(PID.TID 0000.0001) // Check Model config. (CONFIG_CHECK):
(PID.TID 0000.0001) // CONFIG_CHECK : Normal End
(PID.TID 0000.0001) // =======================================================
(PID.TID 0000.0001) 
(PID.TID 0000.0001)  MDS_WRITE_FIELD: it,rec,kS,kL,kH=      -1     1   1   1   1 file=XC
(PID.TID 0000.0001)  MDS_WRITE_FIELD: it,rec,kS,kL,kH=      -1     1   1   1   1 file=YC
(PID.TID 0000.0001)  MDS_WRITE_FIELD: it,rec,kS,kL,kH=      -1     1   1   1   1 file=XG
(PID.TID 0000.0001)  MDS_WRITE_FIELD: it,rec,kS,kL,kH=      -1     1   1   1   1 file=YG
(PID.TID 0000.0001)  MDS_WRITE_FIELD: it,rec,kS,kL,kH=      -1     1   1   1   1 file=RAC
(PID.TID 0000.0001)  MDS_WRITE_FIELD: it,rec,kS,kL,kH=      -1     1   1   1   1 file=RAW
(PID.TID 0000.0001)  MDS_WRITE_FIELD: it,rec,kS,kL,kH=      -1     1   1   1   1 file=RAS
(PID.TID 0000.0001)  MDS_WRITE_FIELD: it,rec,kS,kL,kH=      -1     1   1   1   1 file=RAZ
(PID.TID 0000.0001)  MDS_WRITE_FIELD: it,rec,kS,kL,kH=      -1     1   1   1   1 file=DXG
(PID.TID 0000.0001)  MDS_WRITE_FIELD: it,rec,kS,kL,kH=      -1     1   1   1   1 file=DYG
(PID.TID 0000.0001)  MDS_WRITE_FIELD: it,rec,kS,kL,kH=      -1     1   1   1   1 file=DXC
(PID.TID 0000.0001)  MDS_WRITE_FIELD: it,rec,kS,kL,kH=      -1     1   1   1   1 file=DYC
(PID.TID 0000.0001)  MDS_WRITE_FIELD: it,rec,kS,kL,kH=      -1     1   1   1   1 file=DXF
(PID.TID 0000.0001)  MDS_WRITE_FIELD: it,rec,kS,kL,kH=      -1     1   1   1   1 file=DYF
(PID.TID 0000.0001)  MDS_WRITE_FIELD: it,rec,kS,kL,kH=      -1     1   1   1   1 file=DXV
(PID.TID 0000.0001)  MDS_WRITE_FIELD: it,rec,kS,kL,kH=      -1     1   1   1   1 file=DYU
(PID.TID 0000.0001)  MDS_WRITE_FIELD: it,rec,kS,kL,kH=      -1     1   1   1   1 file=Depth
(PID.TID 0000.0001)  MDS_WRITE_FIELD: it,rec,kS,kL,kH=      -1     1   1   1   1 file=rLowC
(PID.TID 0000.0001)  MDS_WRITE_FIELD: it,rec,kS,kL,kH=      -1     1   1   1   1 file=rLowW
(PID.TID 0000.0001)  MDS_WRITE_FIELD: it,rec,kS,kL,kH=      -1     1   1   1   1 file=rLowS
(PID.TID 0000.0001)  MDS_WRITE_FIELD: it,rec,kS,kL,kH=      -1     1   1   1   1 file=rSurfC
(PID.TID 0000.0001)  MDS_WRITE_FIELD: it,rec,kS,kL,kH=      -1     1   1   1   1 file=rSurfW
(PID.TID 0000.0001)  MDS_WRITE_FIELD: it,rec,kS,kL,kH=      -1     1   1   1   1 file=rSurfS
(PID.TID 0000.0001)  MDS_WRITE_FIELD: it,rec,kS,kL,kH=       0     1  23   1  23 file=hFacC
(PID.TID 0000.0001)  MDS_WRITE_FIELD: it,rec,kS,kL,kH=       0     1  23   1  23 file=hFacW
(PID.TID 0000.0001)  MDS_WRITE_FIELD: it,rec,kS,kL,kH=       0     1  23   1  23 file=hFacS
(PID.TID 0000.0001)  MDS_WRITEVEC_LOC: open file: RC.data
(PID.TID 0000.0001)  MDS_WR_REC_RS: iRec,Dim =         1         23
(PID.TID 0000.0001)  MDS_WRITEVEC_LOC: open file: RF.data
(PID.TID 0000.0001)  MDS_WR_REC_RS: iRec,Dim =         1         24
(PID.TID 0000.0001)  MDS_WRITEVEC_LOC: open file: DRC.data
(PID.TID 0000.0001)  MDS_WR_REC_RS: iRec,Dim =         1         24
(PID.TID 0000.0001)  MDS_WRITEVEC_LOC: open file: DRF.data
(PID.TID 0000.0001)  MDS_WR_REC_RS: iRec,Dim =         1         23
(PID.TID 0000.0001)  MDS_WRITEVEC_LOC: open file: PHrefF.data
(PID.TID 0000.0001)  MDS_WR_REC_RS: iRec,Dim =         1         24
(PID.TID 0000.0001)  MDS_WRITEVEC_LOC: open file: PHrefC.data
(PID.TID 0000.0001)  MDS_WR_REC_RS: iRec,Dim =         1         23
(PID.TID 0000.0001)  MDS_READ_META: opening file: pickup.0000000005.meta
(PID.TID 0000.0001)  nRecords = 141 ; filePrec =  64 ; fileIter =         5
(PID.TID 0000.0001)     nDims =   2 , dims:
(PID.TID 0000.0001)    1:  20   1  20
(PID.TID 0000.0001)    2:  16   1  16
(PID.TID 0000.0001)     nFlds =   9 , nFl3D =   6 , fields:
(PID.TID 0000.0001)  >Uvel    < >Vvel    < >Theta   < >Salt    < >GuNm1   < >GvNm1   < >EtaN    < >dEtaHdt < >EtaH    <
(PID.TID 0000.0001) missingVal=  1.00000000000000E+00 ; nTimRec =   1 , timeList:
(PID.TID 0000.0001)   1.800000000000E+04
(PID.TID 0000.0001) READ_MFLDS_3D_RL: read field: "Uvel    ", #   1 in fldList, rec=   1
(PID.TID 0000.0001)  MDS_READ_FIELD: opening global file: pickup.0000000005.data
(PID.TID 0000.0001) READ_MFLDS_3D_RL: read field: "Vvel    ", #   2 in fldList, rec=   2
(PID.TID 0000.0001)  MDS_READ_FIELD: opening global file: pickup.0000000005.data
(PID.TID 0000.0001) READ_MFLDS_3D_RL: read field: "Theta   ", #   3 in fldList, rec=   3
(PID.TID 0000.0001)  MDS_READ_FIELD: opening global file: pickup.0000000005.data
(PID.TID 0000.0001) READ_MFLDS_3D_RL: read field: "Salt    ", #   4 in fldList, rec=   4
(PID.TID 0000.0001)  MDS_READ_FIELD: opening global file: pickup.0000000005.data
(PID.TID 0000.0001) READ_MFLDS_3D_RL: read field: "GuNm1   ", #   5 in fldList, rec=   5
(PID.TID 0000.0001)  MDS_READ_FIELD: opening global file: pickup.0000000005.data
(PID.TID 0000.0001) READ_MFLDS_3D_RL: read field: "GvNm1   ", #   6 in fldList, rec=   6
(PID.TID 0000.0001)  MDS_READ_FIELD: opening global file: pickup.0000000005.data
(PID.TID 0000.0001) READ_MFLDS_3D_RL: read field: "EtaN    ", #   7 in fldList, rec= 139
(PID.TID 0000.0001)  MDS_READ_FIELD: opening global file: pickup.0000000005.data
(PID.TID 0000.0001) READ_MFLDS_CHECK: - normal end ; reset MFLDS file-name: pickup.0000000005
(PID.TID 0000.0001)  write diagnostics summary to file ioUnit:      6
Iter.Nb:         5 ; Time(s):  1.8000000000000E+04
------------------------------------------------------------------------
2D/3D diagnostics: Number of lists:     4
------------------------------------------------------------------------
listId=    1 ; file name: diags/state_2d_set1
 nFlds, nActive,       freq     &     phase        , nLev               
   16  |   16  |      3600.000000         0.000000 |   1
 levels:   1
 diag# | name   |   ipt  |  iMate | kLev|   count |   mate.C|           
    23 |ETAN    |      1 |      0 |   1 |       0 |
   294 |SIarea  |      2 |      0 |   1 |       0 |
   297 |SIheff  |      3 |      0 |   1 |       0 |
   299 |SIhsnow |      4 |      0 |   1 |       0 |
    25 |DETADT2 |      5 |      0 |   1 |       0 |
    73 |PHIBOT  |      6 |      0 |   1 |       0 |
    82 |sIceLoad|      7 |      0 |   1 |       0 |
    76 |MXLDEPTH|      8 |      0 |   1 |       0 |
   325 |SIatmFW |      9 |      0 |   1 |       0 |
    85 |oceQnet |     10 |      0 |   1 |       0 |
    83 |oceFWflx|     11 |      0 |   1 |       0 |
    79 |oceTAUX |     12 |     13 |   1 |       0 |       0 |
    80 |oceTAUY |     13 |     12 |   1 |       0 |       0 |
   311 |SIuice  |     14 |     15 |   1 |       0 |       0 |
   312 |SIvice  |     15 |     14 |   1 |       0 |       0 |
    24 |ETANSQ  |     16 |      0 |   1 |       0 |
------------------------------------------------------------------------
listId=    2 ; file name: diags/state_3d_set1
 nFlds, nActive,       freq     &     phase        , nLev               
    2  |    2  |      3600.000000         0.000000 |  23
 levels:   1   2   3   4   5   6   7   8   9  10  11  12  13  14  15  16  17  18  19  20  21  22  23
 diag# | name   |   ipt  |  iMate | kLev|   count |   mate.C|           
    26 |THETA   |     17 |      0 |  23 |       0 |
    27 |SALT    |     40 |      0 |  23 |       0 |
------------------------------------------------------------------------
listId=    3 ; file name: diags/trsp_3d_set1
 nFlds, nActive,       freq     &     phase        , nLev               
    2  |    2  |      3600.000000         0.000000 |  23
 levels:   1   2   3   4   5   6   7   8   9  10  11  12  13  14  15  16  17  18  19  20  21  22  23
 diag# | name   |   ipt  |  iMate | kLev|   count |   mate.C|           
    45 |UVELMASS|     63 |     86 |  23 |       0 |       0 |
    46 |VVELMASS|     86 |     63 |  23 |       0 |       0 |
------------------------------------------------------------------------
listId=    4 ; file name: diags/exf_zflux_set1
 nFlds, nActive,       freq     &     phase        , nLev               
   18  |   18  |      3600.000000         0.000000 |   1
 levels:   1
 diag# | name   |   ipt  |  iMate | kLev|   count |   mate.C|           
   224 |EXFpreci|    109 |      0 |   1 |       0 |
   223 |EXFevap |    110 |      0 |   1 |       0 |
   228 |EXFroff |    111 |      0 |   1 |       0 |
   226 |EXFempmr|    112 |      0 |   1 |       0 |
   212 |EXFswdn |    113 |      0 |   1 |       0 |
   211 |EXFlwdn |    114 |      0 |   1 |       0 |
   210 |EXFswnet|    115 |      0 |   1 |       0 |
   209 |EXFlwnet|    116 |      0 |   1 |       0 |
   213 |EXFqnet |    117 |      0 |   1 |       0 |
   221 |EXFatemp|    118 |      0 |   1 |       0 |
   222 |EXFaqh  |    119 |      0 |   1 |       0 |
   214 |EXFtaux |    120 |      0 |   1 |       0 |
   215 |EXFtauy |    121 |      0 |   1 |       0 |
   216 |EXFuwind|    122 |      0 |   1 |       0 |
   217 |EXFvwind|    123 |      0 |   1 |       0 |
   227 |EXFpress|    124 |      0 |   1 |       0 |
   207 |EXFhs   |    125 |      0 |   1 |       0 |
   208 |EXFhl   |    126 |      0 |   1 |       0 |
------------------------------------------------------------------------
Global & Regional Statistics diagnostics: Number of lists:     0
------------------------------------------------------------------------
(PID.TID 0000.0001)  MDS_READ_FIELD: opening global file: pickup_cd.0000000005.data
(PID.TID 0000.0001)  MDS_READ_FIELD: opening global file: pickup_cd.0000000005.data
(PID.TID 0000.0001)  MDS_READ_FIELD: opening global file: pickup_cd.0000000005.data
(PID.TID 0000.0001)  MDS_READ_FIELD: opening global file: pickup_cd.0000000005.data
(PID.TID 0000.0001)  MDS_READ_FIELD: opening global file: pickup_cd.0000000005.data
(PID.TID 0000.0001) // =======================================================
(PID.TID 0000.0001) // Field Current HEFFM    at iteration          5
(PID.TID 0000.0001) // CMIN =          1.000000000000000E+00
(PID.TID 0000.0001) // CMAX =          1.000000000000000E+00
(PID.TID 0000.0001) // CINT =          0.000000000000000E+00
(PID.TID 0000.0001) // SYMBOLS (CMIN->CMAX): -abcdefghijklmnopqrstuvwxyz+
(PID.TID 0000.0001) //                  0.0: .
(PID.TID 0000.0001) // RANGE I (Lo:Hi:Step):(    -3:    24:     1)
(PID.TID 0000.0001) // RANGE J (Lo:Hi:Step):(    20:    -3:    -1)
(PID.TID 0000.0001) // RANGE K (Lo:Hi:Step):(   1:   1:   1)
(PID.TID 0000.0001) // =======================================================
(PID.TID 0000.0001) // =======================================================
(PID.TID 0000.0001) // END OF FIELD                                          =
(PID.TID 0000.0001) // =======================================================
(PID.TID 0000.0001) 
(PID.TID 0000.0001) // =======================================================
(PID.TID 0000.0001) // Field Current seaiceMaskU at iteration          5
(PID.TID 0000.0001) // CMIN =          1.000000000000000E+00
(PID.TID 0000.0001) // CMAX =          1.000000000000000E+00
(PID.TID 0000.0001) // CINT =          0.000000000000000E+00
(PID.TID 0000.0001) // SYMBOLS (CMIN->CMAX): -abcdefghijklmnopqrstuvwxyz+
(PID.TID 0000.0001) //                  0.0: .
(PID.TID 0000.0001) // RANGE I (Lo:Hi:Step):(    -3:    24:     1)
(PID.TID 0000.0001) // RANGE J (Lo:Hi:Step):(    20:    -3:    -1)
(PID.TID 0000.0001) // RANGE K (Lo:Hi:Step):(   1:   1:   1)
(PID.TID 0000.0001) // =======================================================
(PID.TID 0000.0001) // =======================================================
(PID.TID 0000.0001) // END OF FIELD                                          =
(PID.TID 0000.0001) // =======================================================
(PID.TID 0000.0001) 
(PID.TID 0000.0001) // =======================================================
(PID.TID 0000.0001) // Field Current seaiceMaskV at iteration          5
(PID.TID 0000.0001) // CMIN =          1.000000000000000E+00
(PID.TID 0000.0001) // CMAX =          1.000000000000000E+00
(PID.TID 0000.0001) // CINT =          0.000000000000000E+00
(PID.TID 0000.0001) // SYMBOLS (CMIN->CMAX): -abcdefghijklmnopqrstuvwxyz+
(PID.TID 0000.0001) //                  0.0: .
(PID.TID 0000.0001) // RANGE I (Lo:Hi:Step):(    -3:    24:     1)
(PID.TID 0000.0001) // RANGE J (Lo:Hi:Step):(    20:    -3:    -1)
(PID.TID 0000.0001) // RANGE K (Lo:Hi:Step):(   1:   1:   1)
(PID.TID 0000.0001) // =======================================================
(PID.TID 0000.0001) // =======================================================
(PID.TID 0000.0001) // END OF FIELD                                          =
(PID.TID 0000.0001) // =======================================================
(PID.TID 0000.0001) 
(PID.TID 0000.0001)  MDS_READ_META: opening file: pickup_seaice.0000000005.meta
(PID.TID 0000.0001)  nRecords =  13 ; filePrec =  64 ; fileIter =         5
(PID.TID 0000.0001)     nDims =   2 , dims:
(PID.TID 0000.0001)    1:  20   1  20
(PID.TID 0000.0001)    2:  16   1  16
(PID.TID 0000.0001)     nFlds =   7 , nFl3D =   1 , fields:
(PID.TID 0000.0001)  >siTICES < >siAREA  < >siHEFF  < >siHSNOW < >siHSALT < >siUICE  < >siVICE  <
(PID.TID 0000.0001) missingVal=  1.00000000000000E+00 ; nTimRec =   1 , timeList:
(PID.TID 0000.0001)   1.800000000000E+04
(PID.TID 0000.0001) READ_MFLDS_3D_RL: read field: "siTICES ", #   1 in fldList, rec=   1
(PID.TID 0000.0001)  MDS_READ_FIELD: opening global file: pickup_seaice.0000000005.data
(PID.TID 0000.0001) READ_MFLDS_3D_RL: read field: "siAREA  ", #   2 in fldList, rec=   8
(PID.TID 0000.0001)  MDS_READ_FIELD: opening global file: pickup_seaice.0000000005.data
(PID.TID 0000.0001) READ_MFLDS_3D_RL: read field: "siHEFF  ", #   3 in fldList, rec=   9
(PID.TID 0000.0001)  MDS_READ_FIELD: opening global file: pickup_seaice.0000000005.data
(PID.TID 0000.0001) READ_MFLDS_3D_RL: read field: "siHSNOW ", #   4 in fldList, rec=  10
(PID.TID 0000.0001)  MDS_READ_FIELD: opening global file: pickup_seaice.0000000005.data
(PID.TID 0000.0001) READ_MFLDS_3D_RL: read field: "siHSALT ", #   5 in fldList, rec=  11
(PID.TID 0000.0001)  MDS_READ_FIELD: opening global file: pickup_seaice.0000000005.data
(PID.TID 0000.0001) READ_MFLDS_3D_RL: read field: "siUICE  ", #   6 in fldList, rec=  12
(PID.TID 0000.0001)  MDS_READ_FIELD: opening global file: pickup_seaice.0000000005.data
(PID.TID 0000.0001) READ_MFLDS_3D_RL: read field: "siVICE  ", #   7 in fldList, rec=  13
(PID.TID 0000.0001)  MDS_READ_FIELD: opening global file: pickup_seaice.0000000005.data
(PID.TID 0000.0001) READ_MFLDS_CHECK: - normal end ; reset MFLDS file-name: pickup_seaice.0000000005
(PID.TID 0000.0001) CTRL_INIT_REC: Getting record indices for xx_atemp
(PID.TID 0000.0001) CTRL_INIT_REC: Record indices for xx_atemp:
(PID.TID 0000.0001) CTRL_INIT_REC: startrec =          6, endrec =         11
(PID.TID 0000.0001)  MDS_READ_FIELD: opening global file: xx_atemp.0000000001.data
(PID.TID 0000.0001)  MDS_WRITE_FIELD: it,rec,kS,kL,kH=       1     1   1   1   1 file=xx_atemp.effective.0000000001
(PID.TID 0000.0001)  MDS_READ_FIELD: opening global file: xx_atemp.0000000001.data
(PID.TID 0000.0001)  MDS_WRITE_FIELD: it,rec,kS,kL,kH=       1     2   1   1   1 file=xx_atemp.effective.0000000001
(PID.TID 0000.0001)  MDS_READ_FIELD: opening global file: xx_atemp.0000000001.data
(PID.TID 0000.0001)  MDS_WRITE_FIELD: it,rec,kS,kL,kH=       1     3   1   1   1 file=xx_atemp.effective.0000000001
(PID.TID 0000.0001)  MDS_READ_FIELD: opening global file: xx_atemp.0000000001.data
(PID.TID 0000.0001)  MDS_WRITE_FIELD: it,rec,kS,kL,kH=       1     4   1   1   1 file=xx_atemp.effective.0000000001
(PID.TID 0000.0001)  MDS_READ_FIELD: opening global file: xx_atemp.0000000001.data
(PID.TID 0000.0001)  MDS_WRITE_FIELD: it,rec,kS,kL,kH=       1     5   1   1   1 file=xx_atemp.effective.0000000001
(PID.TID 0000.0001)  MDS_READ_FIELD: opening global file: xx_atemp.0000000001.data
(PID.TID 0000.0001)  MDS_WRITE_FIELD: it,rec,kS,kL,kH=       1     6   1   1   1 file=xx_atemp.effective.0000000001
(PID.TID 0000.0001)  MDS_READ_FIELD: opening global file: xx_atemp.effective.0000000001.data
(PID.TID 0000.0001)  MDS_READ_FIELD: opening global file: ones_64b.bin
(PID.TID 0000.0001)  MDS_WRITE_FIELD: it,rec,kS,kL,kH=       1     1   1   1   1 file=xx_atemp.effective.0000000001
(PID.TID 0000.0001)  MDS_READ_FIELD: opening global file: xx_atemp.effective.0000000001.data
(PID.TID 0000.0001)  MDS_READ_FIELD: opening global file: ones_64b.bin
(PID.TID 0000.0001)  MDS_WRITE_FIELD: it,rec,kS,kL,kH=       1     2   1   1   1 file=xx_atemp.effective.0000000001
(PID.TID 0000.0001)  MDS_READ_FIELD: opening global file: xx_atemp.effective.0000000001.data
(PID.TID 0000.0001)  MDS_READ_FIELD: opening global file: ones_64b.bin
(PID.TID 0000.0001)  MDS_WRITE_FIELD: it,rec,kS,kL,kH=       1     3   1   1   1 file=xx_atemp.effective.0000000001
(PID.TID 0000.0001)  MDS_READ_FIELD: opening global file: xx_atemp.effective.0000000001.data
(PID.TID 0000.0001)  MDS_READ_FIELD: opening global file: ones_64b.bin
(PID.TID 0000.0001)  MDS_WRITE_FIELD: it,rec,kS,kL,kH=       1     4   1   1   1 file=xx_atemp.effective.0000000001
(PID.TID 0000.0001)  MDS_READ_FIELD: opening global file: xx_atemp.effective.0000000001.data
(PID.TID 0000.0001)  MDS_READ_FIELD: opening global file: ones_64b.bin
(PID.TID 0000.0001)  MDS_WRITE_FIELD: it,rec,kS,kL,kH=       1     5   1   1   1 file=xx_atemp.effective.0000000001
(PID.TID 0000.0001)  MDS_READ_FIELD: opening global file: xx_atemp.effective.0000000001.data
(PID.TID 0000.0001)  MDS_READ_FIELD: opening global file: ones_64b.bin
(PID.TID 0000.0001)  MDS_WRITE_FIELD: it,rec,kS,kL,kH=       1     6   1   1   1 file=xx_atemp.effective.0000000001
(PID.TID 0000.0001) // =======================================================
(PID.TID 0000.0001) // Begin MONITOR dynamic field statistics
(PID.TID 0000.0001) // =======================================================
(PID.TID 0000.0001) %MON time_tsnumber                =                     5
(PID.TID 0000.0001) %MON time_secondsf                =   1.8000000000000E+04
(PID.TID 0000.0001) %MON dynstat_eta_max              =   3.2562687639848E-01
(PID.TID 0000.0001) %MON dynstat_eta_min              =  -1.2970967282121E-01
(PID.TID 0000.0001) %MON dynstat_eta_mean             =  -2.4549056344512E-16
(PID.TID 0000.0001) %MON dynstat_eta_sd               =   8.2778374314419E-02
(PID.TID 0000.0001) %MON dynstat_eta_del2             =   2.1398475198832E-03
(PID.TID 0000.0001) %MON dynstat_uvel_max             =   8.9166211256649E-02
(PID.TID 0000.0001) %MON dynstat_uvel_min             =  -3.6429644320422E-02
(PID.TID 0000.0001) %MON dynstat_uvel_mean            =   4.9396021816333E-04
(PID.TID 0000.0001) %MON dynstat_uvel_sd              =   7.5636252581474E-03
(PID.TID 0000.0001) %MON dynstat_uvel_del2            =   3.1726666733545E-04
(PID.TID 0000.0001) %MON dynstat_vvel_max             =   7.1570963763345E-02
(PID.TID 0000.0001) %MON dynstat_vvel_min             =  -8.4842706773140E-02
(PID.TID 0000.0001) %MON dynstat_vvel_mean            =  -4.2540517750775E-04
(PID.TID 0000.0001) %MON dynstat_vvel_sd              =   9.6711454031245E-03
(PID.TID 0000.0001) %MON dynstat_vvel_del2            =   2.0266108619499E-04
(PID.TID 0000.0001) %MON dynstat_wvel_max             =   3.0763474421962E-04
(PID.TID 0000.0001) %MON dynstat_wvel_min             =  -2.0299802374946E-04
(PID.TID 0000.0001) %MON dynstat_wvel_mean            =   1.6373691498263E-21
(PID.TID 0000.0001) %MON dynstat_wvel_sd              =   5.0019828383162E-05
(PID.TID 0000.0001) %MON dynstat_wvel_del2            =   8.3057358601640E-07
(PID.TID 0000.0001) %MON dynstat_theta_max            =   1.3257510727307E+01
(PID.TID 0000.0001) %MON dynstat_theta_min            =  -1.9589190989238E+00
(PID.TID 0000.0001) %MON dynstat_theta_mean           =   3.0732789173533E+00
(PID.TID 0000.0001) %MON dynstat_theta_sd             =   1.4281446321209E+00
(PID.TID 0000.0001) %MON dynstat_theta_del2           =   9.8440313093624E-03
(PID.TID 0000.0001) %MON dynstat_salt_max             =   3.5451232231969E+01
(PID.TID 0000.0001) %MON dynstat_salt_min             =   2.7624183571878E+01
(PID.TID 0000.0001) %MON dynstat_salt_mean            =   3.4746191523518E+01
(PID.TID 0000.0001) %MON dynstat_salt_sd              =   5.1271346994605E-01
(PID.TID 0000.0001) %MON dynstat_salt_del2            =   3.6533173056322E-03
(PID.TID 0000.0001) %MON dynstat_sst_max              =   5.4886331177865E+00
(PID.TID 0000.0001) %MON dynstat_sst_min              =  -1.9589190989238E+00
(PID.TID 0000.0001) %MON dynstat_sst_mean             =  -1.2414779032933E+00
(PID.TID 0000.0001) %MON dynstat_sst_sd               =   1.4386721477665E+00
(PID.TID 0000.0001) %MON dynstat_sst_del2             =   3.0539575799422E-02
(PID.TID 0000.0001) %MON dynstat_sss_max              =   3.2696538245307E+01
(PID.TID 0000.0001) %MON dynstat_sss_min              =   2.7624183571878E+01
(PID.TID 0000.0001) %MON dynstat_sss_mean             =   3.1222576053581E+01
(PID.TID 0000.0001) %MON dynstat_sss_sd               =   1.1636128039950E+00
(PID.TID 0000.0001) %MON dynstat_sss_del2             =   2.2352518507005E-02
(PID.TID 0000.0001) %MON forcing_qnet_max             =   0.0000000000000E+00
(PID.TID 0000.0001) %MON forcing_qnet_min             =   0.0000000000000E+00
(PID.TID 0000.0001) %MON forcing_qnet_mean            =   0.0000000000000E+00
(PID.TID 0000.0001) %MON forcing_qnet_sd              =   0.0000000000000E+00
(PID.TID 0000.0001) %MON forcing_qnet_del2            =   0.0000000000000E+00
(PID.TID 0000.0001) %MON forcing_qsw_max              =   0.0000000000000E+00
(PID.TID 0000.0001) %MON forcing_qsw_min              =   0.0000000000000E+00
(PID.TID 0000.0001) %MON forcing_qsw_mean             =   0.0000000000000E+00
(PID.TID 0000.0001) %MON forcing_qsw_sd               =   0.0000000000000E+00
(PID.TID 0000.0001) %MON forcing_qsw_del2             =   0.0000000000000E+00
(PID.TID 0000.0001) %MON forcing_empmr_max            =   0.0000000000000E+00
(PID.TID 0000.0001) %MON forcing_empmr_min            =   0.0000000000000E+00
(PID.TID 0000.0001) %MON forcing_empmr_mean           =   0.0000000000000E+00
(PID.TID 0000.0001) %MON forcing_empmr_sd             =   0.0000000000000E+00
(PID.TID 0000.0001) %MON forcing_empmr_del2           =   0.0000000000000E+00
(PID.TID 0000.0001) %MON forcing_fu_max               =   0.0000000000000E+00
(PID.TID 0000.0001) %MON forcing_fu_min               =   0.0000000000000E+00
(PID.TID 0000.0001) %MON forcing_fu_mean              =   0.0000000000000E+00
(PID.TID 0000.0001) %MON forcing_fu_sd                =   0.0000000000000E+00
(PID.TID 0000.0001) %MON forcing_fu_del2              =   0.0000000000000E+00
(PID.TID 0000.0001) %MON forcing_fv_max               =   0.0000000000000E+00
(PID.TID 0000.0001) %MON forcing_fv_min               =   0.0000000000000E+00
(PID.TID 0000.0001) %MON forcing_fv_mean              =   0.0000000000000E+00
(PID.TID 0000.0001) %MON forcing_fv_sd                =   0.0000000000000E+00
(PID.TID 0000.0001) %MON forcing_fv_del2              =   0.0000000000000E+00
(PID.TID 0000.0001) %MON trAdv_CFL_u_max              =   0.0000000000000E+00
(PID.TID 0000.0001) %MON trAdv_CFL_v_max              =   0.0000000000000E+00
(PID.TID 0000.0001) %MON trAdv_CFL_w_max              =   0.0000000000000E+00
(PID.TID 0000.0001) %MON advcfl_uvel_max              =   2.3452064537950E-03
(PID.TID 0000.0001) %MON advcfl_vvel_max              =   1.3734158275028E-03
(PID.TID 0000.0001) %MON advcfl_wvel_max              =   6.0221678625970E-03
(PID.TID 0000.0001) %MON advcfl_W_hf_max              =   7.2266014351164E-03
(PID.TID 0000.0001) %MON pe_b_mean                    =   2.2589500480993E-05
(PID.TID 0000.0001) %MON ke_max                       =   6.7995128110085E-03
(PID.TID 0000.0001) %MON ke_mean                      =   5.9171907585115E-05
(PID.TID 0000.0001) %MON ke_vol                       =   5.3036189546438E+15
(PID.TID 0000.0001) %MON vort_r_min                   =  -7.9004169000404E-07
(PID.TID 0000.0001) %MON vort_r_max                   =   3.9709991059407E-07
(PID.TID 0000.0001) %MON vort_a_mean                  =   1.2067277475406E-04
(PID.TID 0000.0001) %MON vort_a_sd                    =   8.8120563650502E-06
(PID.TID 0000.0001) %MON vort_p_mean                  =   1.7734842982817E-04
(PID.TID 0000.0001) %MON vort_p_sd                    =   1.1690034772091E-04
(PID.TID 0000.0001) %MON surfExpan_theta_mean         =   1.3414598640967E-06
(PID.TID 0000.0001) %MON surfExpan_salt_mean          =   6.2293998806550E-07
(PID.TID 0000.0001) // =======================================================
(PID.TID 0000.0001) // End MONITOR dynamic field statistics
(PID.TID 0000.0001) // =======================================================
(PID.TID 0000.0001)  MDS_WRITE_FIELD: it,rec,kS,kL,kH=       5     1  23   1  23 file=U.0000000005
(PID.TID 0000.0001)  MDS_WRITE_FIELD: it,rec,kS,kL,kH=       5     1  23   1  23 file=V.0000000005
(PID.TID 0000.0001)  MDS_WRITE_FIELD: it,rec,kS,kL,kH=       5     1  23   1  23 file=T.0000000005
(PID.TID 0000.0001)  MDS_WRITE_FIELD: it,rec,kS,kL,kH=       5     1  23   1  23 file=S.0000000005
(PID.TID 0000.0001)  MDS_WRITE_FIELD: it,rec,kS,kL,kH=       5     1   1   1   1 file=Eta.0000000005
(PID.TID 0000.0001)  MDS_WRITE_FIELD: it,rec,kS,kL,kH=       5     1  23   1  23 file=W.0000000005
(PID.TID 0000.0001)  MDS_WRITE_FIELD: it,rec,kS,kL,kH=       5     1   1   1   1 file=UICE.0000000005
(PID.TID 0000.0001)  MDS_WRITE_FIELD: it,rec,kS,kL,kH=       5     1   1   1   1 file=VICE.0000000005
(PID.TID 0000.0001)  MDS_WRITE_FIELD: it,rec,kS,kL,kH=       5     1   1   1   1 file=HEFF.0000000005
(PID.TID 0000.0001)  MDS_WRITE_FIELD: it,rec,kS,kL,kH=       5     1   1   1   1 file=AREA.0000000005
(PID.TID 0000.0001)  MDS_WRITE_FIELD: it,rec,kS,kL,kH=       5     1   1   1   1 file=HSNOW.0000000005
(PID.TID 0000.0001)  MDS_WRITE_FIELD: it,rec,kS,kL,kH=       5     1   1   1   1 file=HSALT.0000000005
(PID.TID 0000.0001) // =======================================================
(PID.TID 0000.0001) // Begin MONITOR SEAICE statistics
(PID.TID 0000.0001) // =======================================================
(PID.TID 0000.0001) %MON seaice_tsnumber              =                     5
(PID.TID 0000.0001) %MON seaice_time_sec              =   1.8000000000000E+04
(PID.TID 0000.0001) %MON seaice_uice_max              =   2.1944568464711E-01
(PID.TID 0000.0001) %MON seaice_uice_min              =  -9.0212193342816E-03
(PID.TID 0000.0001) %MON seaice_uice_mean             =   8.7102061289104E-02
(PID.TID 0000.0001) %MON seaice_uice_sd               =   7.2808237851783E-02
(PID.TID 0000.0001) %MON seaice_uice_del2             =   2.2586733237369E-03
(PID.TID 0000.0001) %MON seaice_vice_max              =   1.0517480257601E-01
(PID.TID 0000.0001) %MON seaice_vice_min              =  -1.7311205781956E-01
(PID.TID 0000.0001) %MON seaice_vice_mean             =  -3.3846697799275E-02
(PID.TID 0000.0001) %MON seaice_vice_sd               =   5.3999862387633E-02
(PID.TID 0000.0001) %MON seaice_vice_del2             =   1.5535399173312E-03
(PID.TID 0000.0001) %MON seaice_area_max              =   1.0000000000000E+00
(PID.TID 0000.0001) %MON seaice_area_min              =   0.0000000000000E+00
(PID.TID 0000.0001) %MON seaice_area_mean             =   6.3976085575077E-01
(PID.TID 0000.0001) %MON seaice_area_sd               =   4.7920971984378E-01
(PID.TID 0000.0001) %MON seaice_area_del2             =   3.0550046515362E-02
(PID.TID 0000.0001) %MON seaice_heff_max              =   5.7174019685513E-01
(PID.TID 0000.0001) %MON seaice_heff_min              =   0.0000000000000E+00
(PID.TID 0000.0001) %MON seaice_heff_mean             =   1.7804757444599E-01
(PID.TID 0000.0001) %MON seaice_heff_sd               =   1.8370259008052E-01
(PID.TID 0000.0001) %MON seaice_heff_del2             =   3.9819914247280E-03
(PID.TID 0000.0001) %MON seaice_hsnow_max             =   2.0012146334641E-01
(PID.TID 0000.0001) %MON seaice_hsnow_min             =   0.0000000000000E+00
(PID.TID 0000.0001) %MON seaice_hsnow_mean            =   6.3116665432874E-02
(PID.TID 0000.0001) %MON seaice_hsnow_sd              =   6.5111183825920E-02
(PID.TID 0000.0001) %MON seaice_hsnow_del2            =   1.4114581218398E-03
(PID.TID 0000.0001) %MON seaice_hsalt_max             =   5.0482127877026E+03
(PID.TID 0000.0001) %MON seaice_hsalt_min             =   0.0000000000000E+00
(PID.TID 0000.0001) %MON seaice_hsalt_mean            =   1.4645590237497E+03
(PID.TID 0000.0001) %MON seaice_hsalt_sd              =   1.5912939759030E+03
(PID.TID 0000.0001) %MON seaice_hsalt_del2            =   3.6144595076223E+01
(PID.TID 0000.0001) // =======================================================
(PID.TID 0000.0001) // End MONITOR SEAICE statistics
(PID.TID 0000.0001) // =======================================================
(PID.TID 0000.0001) ADWRITE: tid,vid, irec, length, prec(x2)=    39     1     1      672  8 64 fname=tapelev3_1_the_main_loop_etan
(PID.TID 0000.0001) ADWRITE:  tapeFileCounter =     1
(PID.TID 0000.0001) ADWRITE: tid,vid, irec, length, prec(x2)=    39     2     1      672  8 64 fname=tapelev3_2_the_main_loop_taux0
(PID.TID 0000.0001) ADWRITE:  tapeFileCounter =     2
(PID.TID 0000.0001) ADWRITE: tid,vid, irec, length, prec(x2)=    39     3     1      672  8 64 fname=tapelev3_3_the_main_loop_taux1
(PID.TID 0000.0001) ADWRITE:  tapeFileCounter =     3
(PID.TID 0000.0001) ADWRITE: tid,vid, irec, length, prec(x2)=    39     4     1      672  8 64 fname=tapelev3_4_the_main_loop_tauy0
(PID.TID 0000.0001) ADWRITE:  tapeFileCounter =     4
(PID.TID 0000.0001) ADWRITE: tid,vid, irec, length, prec(x2)=    39     5     1      672  8 64 fname=tapelev3_5_the_main_loop_tauy1
(PID.TID 0000.0001) ADWRITE:  tapeFileCounter =     5
(PID.TID 0000.0001) ADWRITE: tid,vid, irec, length, prec(x2)=    39     6     1      672  8 64 fname=tapelev3_6_the_main_loop_qnet0
(PID.TID 0000.0001) ADWRITE:  tapeFileCounter =     6
(PID.TID 0000.0001) ADWRITE: tid,vid, irec, length, prec(x2)=    39     7     1      672  8 64 fname=tapelev3_7_the_main_loop_qnet1
(PID.TID 0000.0001) ADWRITE:  tapeFileCounter =     7
(PID.TID 0000.0001) ADWRITE: tid,vid, irec, length, prec(x2)=    39     8     1      672  8 64 fname=tapelev3_8_the_main_loop_empmr0
(PID.TID 0000.0001) ADWRITE:  tapeFileCounter =     8
(PID.TID 0000.0001) ADWRITE: tid,vid, irec, length, prec(x2)=    39     9     1      672  8 64 fname=tapelev3_9_the_main_loop_empmr1
(PID.TID 0000.0001) ADWRITE:  tapeFileCounter =     9
(PID.TID 0000.0001) ADWRITE: tid,vid, irec, length, prec(x2)=    39    10     1      672  8 64 fname=tapelev3_10_the_main_loop_sst0
(PID.TID 0000.0001) ADWRITE:  tapeFileCounter =    10
(PID.TID 0000.0001) ADWRITE: tid,vid, irec, length, prec(x2)=    39    11     1      672  8 64 fname=tapelev3_11_the_main_loop_sst1
(PID.TID 0000.0001) ADWRITE:  tapeFileCounter =    11
(PID.TID 0000.0001) ADWRITE: tid,vid, irec, length, prec(x2)=    39    12     1      672  8 64 fname=tapelev3_12_the_main_loop_sss0
(PID.TID 0000.0001) ADWRITE:  tapeFileCounter =    12
(PID.TID 0000.0001) ADWRITE: tid,vid, irec, length, prec(x2)=    39    13     1      672  8 64 fname=tapelev3_13_the_main_loop_sss1
(PID.TID 0000.0001) ADWRITE:  tapeFileCounter =    13
(PID.TID 0000.0001) ADWRITE: tid,vid, irec, length, prec(x2)=    39    14     1      672  8 64 fname=tapelev3_14_the_main_loop_saltflux0
(PID.TID 0000.0001) ADWRITE:  tapeFileCounter =    14
(PID.TID 0000.0001) ADWRITE: tid,vid, irec, length, prec(x2)=    39    15     1      672  8 64 fname=tapelev3_15_the_main_loop_saltflux1
(PID.TID 0000.0001) ADWRITE:  tapeFileCounter =    15
(PID.TID 0000.0001) ADWRITE: tid,vid, irec, length, prec(x2)=    39    16     1      672  8 64 fname=tapelev3_16_the_main_loop_qsw0
(PID.TID 0000.0001) ADWRITE:  tapeFileCounter =    16
(PID.TID 0000.0001) ADWRITE: tid,vid, irec, length, prec(x2)=    39    17     1      672  8 64 fname=tapelev3_17_the_main_loop_qsw1
(PID.TID 0000.0001) ADWRITE:  tapeFileCounter =    17
(PID.TID 0000.0001) ADWRITE: tid,vid, irec, length, prec(x2)=    39    18     1      672  8 64 fname=tapelev3_18_the_main_loop_pload0
(PID.TID 0000.0001) ADWRITE:  tapeFileCounter =    18
(PID.TID 0000.0001) ADWRITE: tid,vid, irec, length, prec(x2)=    39    19     1      672  8 64 fname=tapelev3_19_the_main_loop_pload1
(PID.TID 0000.0001) ADWRITE:  tapeFileCounter =    19
(PID.TID 0000.0001) ADWRITE: tid,vid, irec, length, prec(x2)=    39    20     1      672  8 64 fname=tapelev3_20_the_main_loop_etah
(PID.TID 0000.0001) ADWRITE:  tapeFileCounter =    20
(PID.TID 0000.0001) ADWRITE: tid,vid, irec, length, prec(x2)=    39    21     1      672  8 64 fname=tapelev3_21_the_main_loop_detahdt
(PID.TID 0000.0001) ADWRITE:  tapeFileCounter =    21
(PID.TID 0000.0001) ADWRITE: tid,vid, irec, length, prec(x2)=    39    22     1      672  8 64 fname=tapelev3_22_the_main_loop_pmepr
(PID.TID 0000.0001) ADWRITE:  tapeFileCounter =    22
(PID.TID 0000.0001) ADWRITE: tid,vid, irec, length, prec(x2)=    39    23     1    15456  8 64 fname=tapelev3_23_the_main_loop_gtnm1
(PID.TID 0000.0001) ADWRITE:  tapeFileCounter =    23
(PID.TID 0000.0001) ADWRITE:  tapeFileCounter =    24
(PID.TID 0000.0001) ADWRITE:  tapeFileCounter =    25
(PID.TID 0000.0001) ADWRITE:  tapeFileCounter =    26
(PID.TID 0000.0001) ADWRITE:  tapeFileCounter =    27
(PID.TID 0000.0001) ADWRITE:  tapeFileCounter =    28
(PID.TID 0000.0001) ADWRITE:  tapeFileCounter =    29
(PID.TID 0000.0001) ADWRITE:  tapeFileCounter =    30
(PID.TID 0000.0001) ADWRITE:  tapeFileCounter =    31
(PID.TID 0000.0001) ADWRITE:  tapeFileCounter =    32
(PID.TID 0000.0001) ADWRITE:  tapeFileCounter =    33
(PID.TID 0000.0001) ADWRITE:  tapeFileCounter =    34
(PID.TID 0000.0001) ADWRITE:  tapeFileCounter =    35
(PID.TID 0000.0001) ADWRITE:  tapeFileCounter =    36
(PID.TID 0000.0001) ADWRITE:  tapeFileCounter =    37
(PID.TID 0000.0001) ADWRITE:  tapeFileCounter =    38
(PID.TID 0000.0001) ADWRITE:  tapeFileCounter =    39
(PID.TID 0000.0001) ADWRITE:  tapeFileCounter =    40
(PID.TID 0000.0001) ADWRITE:  tapeFileCounter =    41
(PID.TID 0000.0001) ADWRITE:  tapeFileCounter =    42
(PID.TID 0000.0001) ADWRITE:  tapeFileCounter =    43
(PID.TID 0000.0001) ADWRITE:  tapeFileCounter =    44
(PID.TID 0000.0001) ADWRITE:  tapeFileCounter =    45
(PID.TID 0000.0001) ADWRITE: tid,vid, irec, length, prec(x2)=    39    24     1    15456  8 64 fname=tapelev3_24_the_main_loop_gsnm1
(PID.TID 0000.0001) ADWRITE:  tapeFileCounter =    46
(PID.TID 0000.0001) ADWRITE:  tapeFileCounter =    47
(PID.TID 0000.0001) ADWRITE:  tapeFileCounter =    48
(PID.TID 0000.0001) ADWRITE:  tapeFileCounter =    49
(PID.TID 0000.0001) ADWRITE:  tapeFileCounter =    50
(PID.TID 0000.0001) ADWRITE:  tapeFileCounter =    51
(PID.TID 0000.0001) ADWRITE:  tapeFileCounter =    52
(PID.TID 0000.0001) ADWRITE:  tapeFileCounter =    53
(PID.TID 0000.0001) ADWRITE:  tapeFileCounter =    54
(PID.TID 0000.0001) ADWRITE:  tapeFileCounter =    55
(PID.TID 0000.0001) ADWRITE:  tapeFileCounter =    56
(PID.TID 0000.0001) ADWRITE:  tapeFileCounter =    57
(PID.TID 0000.0001) ADWRITE:  tapeFileCounter =    58
(PID.TID 0000.0001) ADWRITE:  tapeFileCounter =    59
(PID.TID 0000.0001) ADWRITE:  tapeFileCounter =    60
(PID.TID 0000.0001) ADWRITE:  tapeFileCounter =    61
(PID.TID 0000.0001) ADWRITE:  tapeFileCounter =    62
(PID.TID 0000.0001) ADWRITE:  tapeFileCounter =    63
(PID.TID 0000.0001) ADWRITE:  tapeFileCounter =    64
(PID.TID 0000.0001) ADWRITE:  tapeFileCounter =    65
(PID.TID 0000.0001) ADWRITE:  tapeFileCounter =    66
(PID.TID 0000.0001) ADWRITE:  tapeFileCounter =    67
(PID.TID 0000.0001) ADWRITE:  tapeFileCounter =    68
(PID.TID 0000.0001) ADWRITE: tid,vid, irec, length, prec(x2)=    39    25     1    15456  8 64 fname=tapelev3_25_the_main_loop_gunm1
(PID.TID 0000.0001) ADWRITE:  tapeFileCounter =    69
(PID.TID 0000.0001) ADWRITE:  tapeFileCounter =    70
(PID.TID 0000.0001) ADWRITE:  tapeFileCounter =    71
(PID.TID 0000.0001) ADWRITE:  tapeFileCounter =    72
(PID.TID 0000.0001) ADWRITE:  tapeFileCounter =    73
(PID.TID 0000.0001) ADWRITE:  tapeFileCounter =    74
(PID.TID 0000.0001) ADWRITE:  tapeFileCounter =    75
(PID.TID 0000.0001) ADWRITE:  tapeFileCounter =    76
(PID.TID 0000.0001) ADWRITE:  tapeFileCounter =    77
(PID.TID 0000.0001) ADWRITE:  tapeFileCounter =    78
(PID.TID 0000.0001) ADWRITE:  tapeFileCounter =    79
(PID.TID 0000.0001) ADWRITE:  tapeFileCounter =    80
(PID.TID 0000.0001) ADWRITE:  tapeFileCounter =    81
(PID.TID 0000.0001) ADWRITE:  tapeFileCounter =    82
(PID.TID 0000.0001) ADWRITE:  tapeFileCounter =    83
(PID.TID 0000.0001) ADWRITE:  tapeFileCounter =    84
(PID.TID 0000.0001) ADWRITE:  tapeFileCounter =    85
(PID.TID 0000.0001) ADWRITE:  tapeFileCounter =    86
(PID.TID 0000.0001) ADWRITE:  tapeFileCounter =    87
(PID.TID 0000.0001) ADWRITE:  tapeFileCounter =    88
(PID.TID 0000.0001) ADWRITE:  tapeFileCounter =    89
(PID.TID 0000.0001) ADWRITE:  tapeFileCounter =    90
(PID.TID 0000.0001) ADWRITE:  tapeFileCounter =    91
(PID.TID 0000.0001) ADWRITE: tid,vid, irec, length, prec(x2)=    39    26     1    15456  8 64 fname=tapelev3_26_the_main_loop_gvnm1
(PID.TID 0000.0001) ADWRITE:  tapeFileCounter =    92
(PID.TID 0000.0001) ADWRITE:  tapeFileCounter =    93
(PID.TID 0000.0001) ADWRITE:  tapeFileCounter =    94
(PID.TID 0000.0001) ADWRITE:  tapeFileCounter =    95
(PID.TID 0000.0001) ADWRITE:  tapeFileCounter =    96
(PID.TID 0000.0001) ADWRITE:  tapeFileCounter =    97
(PID.TID 0000.0001) ADWRITE:  tapeFileCounter =    98
(PID.TID 0000.0001) ADWRITE:  tapeFileCounter =    99
(PID.TID 0000.0001) ADWRITE:  tapeFileCounter =   100
(PID.TID 0000.0001) ADWRITE:  tapeFileCounter =   101
(PID.TID 0000.0001) ADWRITE:  tapeFileCounter =   102
(PID.TID 0000.0001) ADWRITE:  tapeFileCounter =   103
(PID.TID 0000.0001) ADWRITE:  tapeFileCounter =   104
(PID.TID 0000.0001) ADWRITE:  tapeFileCounter =   105
(PID.TID 0000.0001) ADWRITE:  tapeFileCounter =   106
(PID.TID 0000.0001) ADWRITE:  tapeFileCounter =   107
(PID.TID 0000.0001) ADWRITE:  tapeFileCounter =   108
(PID.TID 0000.0001) ADWRITE:  tapeFileCounter =   109
(PID.TID 0000.0001) ADWRITE:  tapeFileCounter =   110
(PID.TID 0000.0001) ADWRITE:  tapeFileCounter =   111
(PID.TID 0000.0001) ADWRITE:  tapeFileCounter =   112
(PID.TID 0000.0001) ADWRITE:  tapeFileCounter =   113
(PID.TID 0000.0001) ADWRITE:  tapeFileCounter =   114
(PID.TID 0000.0001) ADWRITE: tid,vid, irec, length, prec(x2)=    39    27     1    15456  8 64 fname=tapelev3_27_the_main_loop_theta
(PID.TID 0000.0001) ADWRITE:  tapeFileCounter =   115
(PID.TID 0000.0001) ADWRITE:  tapeFileCounter =   116
(PID.TID 0000.0001) ADWRITE:  tapeFileCounter =   117
(PID.TID 0000.0001) ADWRITE:  tapeFileCounter =   118
(PID.TID 0000.0001) ADWRITE:  tapeFileCounter =   119
(PID.TID 0000.0001) ADWRITE:  tapeFileCounter =   120
(PID.TID 0000.0001) ADWRITE:  tapeFileCounter =   121
(PID.TID 0000.0001) ADWRITE:  tapeFileCounter =   122
(PID.TID 0000.0001) ADWRITE:  tapeFileCounter =   123
(PID.TID 0000.0001) ADWRITE:  tapeFileCounter =   124
(PID.TID 0000.0001) ADWRITE:  tapeFileCounter =   125
(PID.TID 0000.0001) ADWRITE:  tapeFileCounter =   126
(PID.TID 0000.0001) ADWRITE:  tapeFileCounter =   127
(PID.TID 0000.0001) ADWRITE:  tapeFileCounter =   128
(PID.TID 0000.0001) ADWRITE:  tapeFileCounter =   129
(PID.TID 0000.0001) ADWRITE:  tapeFileCounter =   130
(PID.TID 0000.0001) ADWRITE:  tapeFileCounter =   131
(PID.TID 0000.0001) ADWRITE:  tapeFileCounter =   132
(PID.TID 0000.0001) ADWRITE:  tapeFileCounter =   133
(PID.TID 0000.0001) ADWRITE:  tapeFileCounter =   134
(PID.TID 0000.0001) ADWRITE:  tapeFileCounter =   135
(PID.TID 0000.0001) ADWRITE:  tapeFileCounter =   136
(PID.TID 0000.0001) ADWRITE:  tapeFileCounter =   137
(PID.TID 0000.0001) ADWRITE: tid,vid, irec, length, prec(x2)=    39    28     1    15456  8 64 fname=tapelev3_28_the_main_loop_salt
(PID.TID 0000.0001) ADWRITE:  tapeFileCounter =   138
(PID.TID 0000.0001) ADWRITE:  tapeFileCounter =   139
(PID.TID 0000.0001) ADWRITE:  tapeFileCounter =   140
(PID.TID 0000.0001) ADWRITE:  tapeFileCounter =   141
(PID.TID 0000.0001) ADWRITE:  tapeFileCounter =   142
(PID.TID 0000.0001) ADWRITE:  tapeFileCounter =   143
(PID.TID 0000.0001) ADWRITE:  tapeFileCounter =   144
(PID.TID 0000.0001) ADWRITE:  tapeFileCounter =   145
(PID.TID 0000.0001) ADWRITE:  tapeFileCounter =   146
(PID.TID 0000.0001) ADWRITE:  tapeFileCounter =   147
(PID.TID 0000.0001) ADWRITE:  tapeFileCounter =   148
(PID.TID 0000.0001) ADWRITE:  tapeFileCounter =   149
(PID.TID 0000.0001) ADWRITE:  tapeFileCounter =   150
(PID.TID 0000.0001) ADWRITE:  tapeFileCounter =   151
(PID.TID 0000.0001) ADWRITE:  tapeFileCounter =   152
(PID.TID 0000.0001) ADWRITE:  tapeFileCounter =   153
(PID.TID 0000.0001) ADWRITE:  tapeFileCounter =   154
(PID.TID 0000.0001) ADWRITE:  tapeFileCounter =   155
(PID.TID 0000.0001) ADWRITE:  tapeFileCounter =   156
(PID.TID 0000.0001) ADWRITE:  tapeFileCounter =   157
(PID.TID 0000.0001) ADWRITE:  tapeFileCounter =   158
(PID.TID 0000.0001) ADWRITE:  tapeFileCounter =   159
(PID.TID 0000.0001) ADWRITE:  tapeFileCounter =   160
(PID.TID 0000.0001) ADWRITE: tid,vid, irec, length, prec(x2)=    39    29     1    15456  8 64 fname=tapelev3_29_the_main_loop_uvel
(PID.TID 0000.0001) ADWRITE:  tapeFileCounter =   161
(PID.TID 0000.0001) ADWRITE:  tapeFileCounter =   162
(PID.TID 0000.0001) ADWRITE:  tapeFileCounter =   163
(PID.TID 0000.0001) ADWRITE:  tapeFileCounter =   164
(PID.TID 0000.0001) ADWRITE:  tapeFileCounter =   165
(PID.TID 0000.0001) ADWRITE:  tapeFileCounter =   166
(PID.TID 0000.0001) ADWRITE:  tapeFileCounter =   167
(PID.TID 0000.0001) ADWRITE:  tapeFileCounter =   168
(PID.TID 0000.0001) ADWRITE:  tapeFileCounter =   169
(PID.TID 0000.0001) ADWRITE:  tapeFileCounter =   170
(PID.TID 0000.0001) ADWRITE:  tapeFileCounter =   171
(PID.TID 0000.0001) ADWRITE:  tapeFileCounter =   172
(PID.TID 0000.0001) ADWRITE:  tapeFileCounter =   173
(PID.TID 0000.0001) ADWRITE:  tapeFileCounter =   174
(PID.TID 0000.0001) ADWRITE:  tapeFileCounter =   175
(PID.TID 0000.0001) ADWRITE:  tapeFileCounter =   176
(PID.TID 0000.0001) ADWRITE:  tapeFileCounter =   177
(PID.TID 0000.0001) ADWRITE:  tapeFileCounter =   178
(PID.TID 0000.0001) ADWRITE:  tapeFileCounter =   179
(PID.TID 0000.0001) ADWRITE:  tapeFileCounter =   180
(PID.TID 0000.0001) ADWRITE:  tapeFileCounter =   181
(PID.TID 0000.0001) ADWRITE:  tapeFileCounter =   182
(PID.TID 0000.0001) ADWRITE:  tapeFileCounter =   183
(PID.TID 0000.0001) ADWRITE: tid,vid, irec, length, prec(x2)=    39    30     1    15456  8 64 fname=tapelev3_30_the_main_loop_vvel
(PID.TID 0000.0001) ADWRITE:  tapeFileCounter =   184
(PID.TID 0000.0001) ADWRITE:  tapeFileCounter =   185
(PID.TID 0000.0001) ADWRITE:  tapeFileCounter =   186
(PID.TID 0000.0001) ADWRITE:  tapeFileCounter =   187
(PID.TID 0000.0001) ADWRITE:  tapeFileCounter =   188
(PID.TID 0000.0001) ADWRITE:  tapeFileCounter =   189
(PID.TID 0000.0001) ADWRITE:  tapeFileCounter =   190
(PID.TID 0000.0001) ADWRITE:  tapeFileCounter =   191
(PID.TID 0000.0001) ADWRITE:  tapeFileCounter =   192
(PID.TID 0000.0001) ADWRITE:  tapeFileCounter =   193
(PID.TID 0000.0001) ADWRITE:  tapeFileCounter =   194
(PID.TID 0000.0001) ADWRITE:  tapeFileCounter =   195
(PID.TID 0000.0001) ADWRITE:  tapeFileCounter =   196
(PID.TID 0000.0001) ADWRITE:  tapeFileCounter =   197
(PID.TID 0000.0001) ADWRITE:  tapeFileCounter =   198
(PID.TID 0000.0001) ADWRITE:  tapeFileCounter =   199
(PID.TID 0000.0001) ADWRITE:  tapeFileCounter =   200
(PID.TID 0000.0001) ADWRITE:  tapeFileCounter =   201
(PID.TID 0000.0001) ADWRITE:  tapeFileCounter =   202
(PID.TID 0000.0001) ADWRITE:  tapeFileCounter =   203
(PID.TID 0000.0001) ADWRITE:  tapeFileCounter =   204
(PID.TID 0000.0001) ADWRITE:  tapeFileCounter =   205
(PID.TID 0000.0001) ADWRITE:  tapeFileCounter =   206
(PID.TID 0000.0001) ADWRITE: tid,vid, irec, length, prec(x2)=    39    31     1    15456  8 64 fname=tapelev3_31_the_main_loop_wvel
(PID.TID 0000.0001) ADWRITE:  tapeFileCounter =   207
(PID.TID 0000.0001) ADWRITE:  tapeFileCounter =   208
(PID.TID 0000.0001) ADWRITE:  tapeFileCounter =   209
(PID.TID 0000.0001) ADWRITE:  tapeFileCounter =   210
(PID.TID 0000.0001) ADWRITE:  tapeFileCounter =   211
(PID.TID 0000.0001) ADWRITE:  tapeFileCounter =   212
(PID.TID 0000.0001) ADWRITE:  tapeFileCounter =   213
(PID.TID 0000.0001) ADWRITE:  tapeFileCounter =   214
(PID.TID 0000.0001) ADWRITE:  tapeFileCounter =   215
(PID.TID 0000.0001) ADWRITE:  tapeFileCounter =   216
(PID.TID 0000.0001) ADWRITE:  tapeFileCounter =   217
(PID.TID 0000.0001) ADWRITE:  tapeFileCounter =   218
(PID.TID 0000.0001) ADWRITE:  tapeFileCounter =   219
(PID.TID 0000.0001) ADWRITE:  tapeFileCounter =   220
(PID.TID 0000.0001) ADWRITE:  tapeFileCounter =   221
(PID.TID 0000.0001) ADWRITE:  tapeFileCounter =   222
(PID.TID 0000.0001) ADWRITE:  tapeFileCounter =   223
(PID.TID 0000.0001) ADWRITE:  tapeFileCounter =   224
(PID.TID 0000.0001) ADWRITE:  tapeFileCounter =   225
(PID.TID 0000.0001) ADWRITE:  tapeFileCounter =   226
(PID.TID 0000.0001) ADWRITE:  tapeFileCounter =   227
(PID.TID 0000.0001) ADWRITE:  tapeFileCounter =   228
(PID.TID 0000.0001) ADWRITE:  tapeFileCounter =   229
(PID.TID 0000.0001) ADWRITE: tid,vid, irec, length, prec(x2)=    39    32     1    15456  8 64 fname=tapelev3_32_the_main_loop_totphihyd
(PID.TID 0000.0001) ADWRITE:  tapeFileCounter =   230
(PID.TID 0000.0001) ADWRITE:  tapeFileCounter =   231
(PID.TID 0000.0001) ADWRITE:  tapeFileCounter =   232
(PID.TID 0000.0001) ADWRITE:  tapeFileCounter =   233
(PID.TID 0000.0001) ADWRITE:  tapeFileCounter =   234
(PID.TID 0000.0001) ADWRITE:  tapeFileCounter =   235
(PID.TID 0000.0001) ADWRITE:  tapeFileCounter =   236
(PID.TID 0000.0001) ADWRITE:  tapeFileCounter =   237
(PID.TID 0000.0001) ADWRITE:  tapeFileCounter =   238
(PID.TID 0000.0001) ADWRITE:  tapeFileCounter =   239
(PID.TID 0000.0001) ADWRITE:  tapeFileCounter =   240
(PID.TID 0000.0001) ADWRITE:  tapeFileCounter =   241
(PID.TID 0000.0001) ADWRITE:  tapeFileCounter =   242
(PID.TID 0000.0001) ADWRITE:  tapeFileCounter =   243
(PID.TID 0000.0001) ADWRITE:  tapeFileCounter =   244
(PID.TID 0000.0001) ADWRITE:  tapeFileCounter =   245
(PID.TID 0000.0001) ADWRITE:  tapeFileCounter =   246
(PID.TID 0000.0001) ADWRITE:  tapeFileCounter =   247
(PID.TID 0000.0001) ADWRITE:  tapeFileCounter =   248
(PID.TID 0000.0001) ADWRITE:  tapeFileCounter =   249
(PID.TID 0000.0001) ADWRITE:  tapeFileCounter =   250
(PID.TID 0000.0001) ADWRITE:  tapeFileCounter =   251
(PID.TID 0000.0001) ADWRITE:  tapeFileCounter =   252
(PID.TID 0000.0001) ADWRITE: tid,vid, irec, length, prec(x2)=    39    35     1    15456  8 64 fname=tapelev3_35_the_main_loop_uveld
(PID.TID 0000.0001) ADWRITE:  tapeFileCounter =   253
(PID.TID 0000.0001) ADWRITE:  tapeFileCounter =   254
(PID.TID 0000.0001) ADWRITE:  tapeFileCounter =   255
(PID.TID 0000.0001) ADWRITE:  tapeFileCounter =   256
(PID.TID 0000.0001) ADWRITE:  tapeFileCounter =   257
(PID.TID 0000.0001) ADWRITE:  tapeFileCounter =   258
(PID.TID 0000.0001) ADWRITE:  tapeFileCounter =   259
(PID.TID 0000.0001) ADWRITE:  tapeFileCounter =   260
(PID.TID 0000.0001) ADWRITE:  tapeFileCounter =   261
(PID.TID 0000.0001) ADWRITE:  tapeFileCounter =   262
(PID.TID 0000.0001) ADWRITE:  tapeFileCounter =   263
(PID.TID 0000.0001) ADWRITE:  tapeFileCounter =   264
(PID.TID 0000.0001) ADWRITE:  tapeFileCounter =   265
(PID.TID 0000.0001) ADWRITE:  tapeFileCounter =   266
(PID.TID 0000.0001) ADWRITE:  tapeFileCounter =   267
(PID.TID 0000.0001) ADWRITE:  tapeFileCounter =   268
(PID.TID 0000.0001) ADWRITE:  tapeFileCounter =   269
(PID.TID 0000.0001) ADWRITE:  tapeFileCounter =   270
(PID.TID 0000.0001) ADWRITE:  tapeFileCounter =   271
(PID.TID 0000.0001) ADWRITE:  tapeFileCounter =   272
(PID.TID 0000.0001) ADWRITE:  tapeFileCounter =   273
(PID.TID 0000.0001) ADWRITE:  tapeFileCounter =   274
(PID.TID 0000.0001) ADWRITE:  tapeFileCounter =   275
(PID.TID 0000.0001) ADWRITE: tid,vid, irec, length, prec(x2)=    39    36     1    15456  8 64 fname=tapelev3_36_the_main_loop_vveld
(PID.TID 0000.0001) ADWRITE:  tapeFileCounter =   276
(PID.TID 0000.0001) ADWRITE:  tapeFileCounter =   277
(PID.TID 0000.0001) ADWRITE:  tapeFileCounter =   278
(PID.TID 0000.0001) ADWRITE:  tapeFileCounter =   279
(PID.TID 0000.0001) ADWRITE:  tapeFileCounter =   280
(PID.TID 0000.0001) ADWRITE:  tapeFileCounter =   281
(PID.TID 0000.0001) ADWRITE:  tapeFileCounter =   282
(PID.TID 0000.0001) ADWRITE:  tapeFileCounter =   283
(PID.TID 0000.0001) ADWRITE:  tapeFileCounter =   284
(PID.TID 0000.0001) ADWRITE:  tapeFileCounter =   285
(PID.TID 0000.0001) ADWRITE:  tapeFileCounter =   286
(PID.TID 0000.0001) ADWRITE:  tapeFileCounter =   287
(PID.TID 0000.0001) ADWRITE:  tapeFileCounter =   288
(PID.TID 0000.0001) ADWRITE:  tapeFileCounter =   289
(PID.TID 0000.0001) ADWRITE:  tapeFileCounter =   290
(PID.TID 0000.0001) ADWRITE:  tapeFileCounter =   291
(PID.TID 0000.0001) ADWRITE:  tapeFileCounter =   292
(PID.TID 0000.0001) ADWRITE:  tapeFileCounter =   293
(PID.TID 0000.0001) ADWRITE:  tapeFileCounter =   294
(PID.TID 0000.0001) ADWRITE:  tapeFileCounter =   295
(PID.TID 0000.0001) ADWRITE:  tapeFileCounter =   296
(PID.TID 0000.0001) ADWRITE:  tapeFileCounter =   297
(PID.TID 0000.0001) ADWRITE:  tapeFileCounter =   298
(PID.TID 0000.0001) ADWRITE: tid,vid, irec, length, prec(x2)=    39    37     1      672  8 64 fname=tapelev3_37_the_main_loop_etanm1
(PID.TID 0000.0001) ADWRITE:  tapeFileCounter =   299
(PID.TID 0000.0001) ADWRITE: tid,vid, irec, length, prec(x2)=    39    38     1    15456  8 64 fname=tapelev3_38_the_main_loop_unm1
(PID.TID 0000.0001) ADWRITE:  tapeFileCounter =   300
(PID.TID 0000.0001) ADWRITE:  tapeFileCounter =   301
(PID.TID 0000.0001) ADWRITE:  tapeFileCounter =   302
(PID.TID 0000.0001) ADWRITE:  tapeFileCounter =   303
(PID.TID 0000.0001) ADWRITE:  tapeFileCounter =   304
(PID.TID 0000.0001) ADWRITE:  tapeFileCounter =   305
(PID.TID 0000.0001) ADWRITE:  tapeFileCounter =   306
(PID.TID 0000.0001) ADWRITE:  tapeFileCounter =   307
(PID.TID 0000.0001) ADWRITE:  tapeFileCounter =   308
(PID.TID 0000.0001) ADWRITE:  tapeFileCounter =   309
(PID.TID 0000.0001) ADWRITE:  tapeFileCounter =   310
(PID.TID 0000.0001) ADWRITE:  tapeFileCounter =   311
(PID.TID 0000.0001) ADWRITE:  tapeFileCounter =   312
(PID.TID 0000.0001) ADWRITE:  tapeFileCounter =   313
(PID.TID 0000.0001) ADWRITE:  tapeFileCounter =   314
(PID.TID 0000.0001) ADWRITE:  tapeFileCounter =   315
(PID.TID 0000.0001) ADWRITE:  tapeFileCounter =   316
(PID.TID 0000.0001) ADWRITE:  tapeFileCounter =   317
(PID.TID 0000.0001) ADWRITE:  tapeFileCounter =   318
(PID.TID 0000.0001) ADWRITE:  tapeFileCounter =   319
(PID.TID 0000.0001) ADWRITE:  tapeFileCounter =   320
(PID.TID 0000.0001) ADWRITE:  tapeFileCounter =   321
(PID.TID 0000.0001) ADWRITE:  tapeFileCounter =   322
(PID.TID 0000.0001) ADWRITE: tid,vid, irec, length, prec(x2)=    39    39     1    15456  8 64 fname=tapelev3_39_the_main_loop_vnm1
(PID.TID 0000.0001) ADWRITE:  tapeFileCounter =   323
(PID.TID 0000.0001) ADWRITE:  tapeFileCounter =   324
(PID.TID 0000.0001) ADWRITE:  tapeFileCounter =   325
(PID.TID 0000.0001) ADWRITE:  tapeFileCounter =   326
(PID.TID 0000.0001) ADWRITE:  tapeFileCounter =   327
(PID.TID 0000.0001) ADWRITE:  tapeFileCounter =   328
(PID.TID 0000.0001) ADWRITE:  tapeFileCounter =   329
(PID.TID 0000.0001) ADWRITE:  tapeFileCounter =   330
(PID.TID 0000.0001) ADWRITE:  tapeFileCounter =   331
(PID.TID 0000.0001) ADWRITE:  tapeFileCounter =   332
(PID.TID 0000.0001) ADWRITE:  tapeFileCounter =   333
(PID.TID 0000.0001) ADWRITE:  tapeFileCounter =   334
(PID.TID 0000.0001) ADWRITE:  tapeFileCounter =   335
(PID.TID 0000.0001) ADWRITE:  tapeFileCounter =   336
(PID.TID 0000.0001) ADWRITE:  tapeFileCounter =   337
(PID.TID 0000.0001) ADWRITE:  tapeFileCounter =   338
(PID.TID 0000.0001) ADWRITE:  tapeFileCounter =   339
(PID.TID 0000.0001) ADWRITE:  tapeFileCounter =   340
(PID.TID 0000.0001) ADWRITE:  tapeFileCounter =   341
(PID.TID 0000.0001) ADWRITE:  tapeFileCounter =   342
(PID.TID 0000.0001) ADWRITE:  tapeFileCounter =   343
(PID.TID 0000.0001) ADWRITE:  tapeFileCounter =   344
(PID.TID 0000.0001) ADWRITE:  tapeFileCounter =   345
(PID.TID 0000.0001) ADWRITE: tid,vid, irec, length, prec(x2)=    39    40     1      672  8 64 fname=tapelev3_40_the_main_loop_areamask0
(PID.TID 0000.0001) ADWRITE:  tapeFileCounter =   346
(PID.TID 0000.0001) ADWRITE: tid,vid, irec, length, prec(x2)=    39    41     1      672  8 64 fname=tapelev3_41_the_main_loop_areamask1
(PID.TID 0000.0001) ADWRITE:  tapeFileCounter =   347
(PID.TID 0000.0001) ADWRITE: tid,vid, irec, length, prec(x2)=    39    42     1      672  8 64 fname=tapelev3_42_the_main_loop_hflux0
(PID.TID 0000.0001) ADWRITE:  tapeFileCounter =   348
(PID.TID 0000.0001) ADWRITE: tid,vid, irec, length, prec(x2)=    39    43     1      672  8 64 fname=tapelev3_43_the_main_loop_hflux1
(PID.TID 0000.0001) ADWRITE:  tapeFileCounter =   349
(PID.TID 0000.0001) ADWRITE: tid,vid, irec, length, prec(x2)=    39    44     1      672  8 64 fname=tapelev3_44_the_main_loop_sflux0
(PID.TID 0000.0001) ADWRITE:  tapeFileCounter =   350
(PID.TID 0000.0001) ADWRITE: tid,vid, irec, length, prec(x2)=    39    45     1      672  8 64 fname=tapelev3_45_the_main_loop_sflux1
(PID.TID 0000.0001) ADWRITE:  tapeFileCounter =   351
(PID.TID 0000.0001) ADWRITE: tid,vid, irec, length, prec(x2)=    39    46     1      672  8 64 fname=tapelev3_46_the_main_loop_ustress0
(PID.TID 0000.0001) ADWRITE:  tapeFileCounter =   352
(PID.TID 0000.0001) ADWRITE: tid,vid, irec, length, prec(x2)=    39    47     1      672  8 64 fname=tapelev3_47_the_main_loop_ustress1
(PID.TID 0000.0001) ADWRITE:  tapeFileCounter =   353
(PID.TID 0000.0001) ADWRITE: tid,vid, irec, length, prec(x2)=    39    48     1      672  8 64 fname=tapelev3_48_the_main_loop_vstress0
(PID.TID 0000.0001) ADWRITE:  tapeFileCounter =   354
(PID.TID 0000.0001) ADWRITE: tid,vid, irec, length, prec(x2)=    39    49     1      672  8 64 fname=tapelev3_49_the_main_loop_vstress1
(PID.TID 0000.0001) ADWRITE:  tapeFileCounter =   355
(PID.TID 0000.0001) ADWRITE: tid,vid, irec, length, prec(x2)=    39    50     1      672  8 64 fname=tapelev3_50_the_main_loop_wspeed0
(PID.TID 0000.0001) ADWRITE:  tapeFileCounter =   356
(PID.TID 0000.0001) ADWRITE: tid,vid, irec, length, prec(x2)=    39    51     1      672  8 64 fname=tapelev3_51_the_main_loop_wspeed1
(PID.TID 0000.0001) ADWRITE:  tapeFileCounter =   357
(PID.TID 0000.0001) ADWRITE: tid,vid, irec, length, prec(x2)=    39    54     1      672  8 64 fname=tapelev3_54_the_main_loop_runoff0
(PID.TID 0000.0001) ADWRITE:  tapeFileCounter =   358
(PID.TID 0000.0001) ADWRITE: tid,vid, irec, length, prec(x2)=    39    55     1      672  8 64 fname=tapelev3_55_the_main_loop_runoff1
(PID.TID 0000.0001) ADWRITE:  tapeFileCounter =   359
(PID.TID 0000.0001) ADWRITE: tid,vid, irec, length, prec(x2)=    39    56     1      672  8 64 fname=tapelev3_56_the_main_loop_apressure0
(PID.TID 0000.0001) ADWRITE:  tapeFileCounter =   360
(PID.TID 0000.0001) ADWRITE: tid,vid, irec, length, prec(x2)=    39    57     1      672  8 64 fname=tapelev3_57_the_main_loop_apressure1
(PID.TID 0000.0001) ADWRITE:  tapeFileCounter =   361
(PID.TID 0000.0001) ADWRITE: tid,vid, irec, length, prec(x2)=    39    58     1      672  8 64 fname=tapelev3_58_the_main_loop_siceload
(PID.TID 0000.0001) ADWRITE:  tapeFileCounter =   362
(PID.TID 0000.0001) ADWRITE: tid,vid, irec, length, prec(x2)=    39    59     1      672  8 64 fname=tapelev3_59_the_main_loop_climsss0
(PID.TID 0000.0001) ADWRITE:  tapeFileCounter =   363
(PID.TID 0000.0001) ADWRITE: tid,vid, irec, length, prec(x2)=    39    60     1      672  8 64 fname=tapelev3_60_the_main_loop_climsss1
(PID.TID 0000.0001) ADWRITE:  tapeFileCounter =   364
(PID.TID 0000.0001) ADWRITE: tid,vid, irec, length, prec(x2)=    39    61     1      672  8 64 fname=tapelev3_61_the_main_loop_climsst0
(PID.TID 0000.0001) ADWRITE:  tapeFileCounter =   365
(PID.TID 0000.0001) ADWRITE: tid,vid, irec, length, prec(x2)=    39    62     1      672  8 64 fname=tapelev3_62_the_main_loop_climsst1
(PID.TID 0000.0001) ADWRITE:  tapeFileCounter =   366
(PID.TID 0000.0001) ADWRITE: tid,vid, irec, length, prec(x2)=    39    63     1      672  8 64 fname=tapelev3_63_the_main_loop_saltflx0
(PID.TID 0000.0001) ADWRITE:  tapeFileCounter =   367
(PID.TID 0000.0001) ADWRITE: tid,vid, irec, length, prec(x2)=    39    64     1      672  8 64 fname=tapelev3_64_the_main_loop_saltflx1
(PID.TID 0000.0001) ADWRITE:  tapeFileCounter =   368
(PID.TID 0000.0001) ADWRITE: tid,vid, irec, length, prec(x2)=    39    65     1      672  8 64 fname=tapelev3_65_the_main_loop_aqh0
(PID.TID 0000.0001) ADWRITE:  tapeFileCounter =   369
(PID.TID 0000.0001) ADWRITE: tid,vid, irec, length, prec(x2)=    39    66     1      672  8 64 fname=tapelev3_66_the_main_loop_aqh1
(PID.TID 0000.0001) ADWRITE:  tapeFileCounter =   370
(PID.TID 0000.0001) ADWRITE: tid,vid, irec, length, prec(x2)=    39    67     1      672  8 64 fname=tapelev3_67_the_main_loop_atemp0
(PID.TID 0000.0001) ADWRITE:  tapeFileCounter =   371
(PID.TID 0000.0001) ADWRITE: tid,vid, irec, length, prec(x2)=    39    68     1      672  8 64 fname=tapelev3_68_the_main_loop_atemp1
(PID.TID 0000.0001) ADWRITE:  tapeFileCounter =   372
(PID.TID 0000.0001) ADWRITE: tid,vid, irec, length, prec(x2)=    39    69     1      672  8 64 fname=tapelev3_69_the_main_loop_precip0
(PID.TID 0000.0001) ADWRITE:  tapeFileCounter =   373
(PID.TID 0000.0001) ADWRITE: tid,vid, irec, length, prec(x2)=    39    70     1      672  8 64 fname=tapelev3_70_the_main_loop_precip1
(PID.TID 0000.0001) ADWRITE:  tapeFileCounter =   374
(PID.TID 0000.0001) ADWRITE: tid,vid, irec, length, prec(x2)=    39    73     1      672  8 64 fname=tapelev3_73_the_main_loop_snowprecip0
(PID.TID 0000.0001) ADWRITE:  tapeFileCounter =   375
(PID.TID 0000.0001) ADWRITE: tid,vid, irec, length, prec(x2)=    39    74     1      672  8 64 fname=tapelev3_74_the_main_loop_snowprecip1
(PID.TID 0000.0001) ADWRITE:  tapeFileCounter =   376
(PID.TID 0000.0001) ADWRITE: tid,vid, irec, length, prec(x2)=    39    75     1      672  8 64 fname=tapelev3_75_the_main_loop_swdown0
(PID.TID 0000.0001) ADWRITE:  tapeFileCounter =   377
(PID.TID 0000.0001) ADWRITE: tid,vid, irec, length, prec(x2)=    39    76     1      672  8 64 fname=tapelev3_76_the_main_loop_swdown1
(PID.TID 0000.0001) ADWRITE:  tapeFileCounter =   378
(PID.TID 0000.0001) ADWRITE: tid,vid, irec, length, prec(x2)=    39    77     1      672  8 64 fname=tapelev3_77_the_main_loop_lwdown0
(PID.TID 0000.0001) ADWRITE:  tapeFileCounter =   379
(PID.TID 0000.0001) ADWRITE: tid,vid, irec, length, prec(x2)=    39    78     1      672  8 64 fname=tapelev3_78_the_main_loop_lwdown1
(PID.TID 0000.0001) ADWRITE:  tapeFileCounter =   380
(PID.TID 0000.0001) ADWRITE: tid,vid, irec, length, prec(x2)=    39    79     1      672  8 64 fname=tapelev3_79_the_main_loop_uwind0
(PID.TID 0000.0001) ADWRITE:  tapeFileCounter =   381
(PID.TID 0000.0001) ADWRITE: tid,vid, irec, length, prec(x2)=    39    80     1      672  8 64 fname=tapelev3_80_the_main_loop_uwind1
(PID.TID 0000.0001) ADWRITE:  tapeFileCounter =   382
(PID.TID 0000.0001) ADWRITE: tid,vid, irec, length, prec(x2)=    39    81     1      672  8 64 fname=tapelev3_81_the_main_loop_vwind0
(PID.TID 0000.0001) ADWRITE:  tapeFileCounter =   383
(PID.TID 0000.0001) ADWRITE: tid,vid, irec, length, prec(x2)=    39    82     1      672  8 64 fname=tapelev3_82_the_main_loop_vwind1
(PID.TID 0000.0001) ADWRITE:  tapeFileCounter =   384
(PID.TID 0000.0001) ADWRITE: tid,vid, irec, length, prec(x2)=    39    83     1     6048  8 64 fname=tapelev3_83_the_main_loop_xx_gentim2d
(PID.TID 0000.0001) ADWRITE:  tapeFileCounter =   385
(PID.TID 0000.0001) ADWRITE:  tapeFileCounter =   386
(PID.TID 0000.0001) ADWRITE:  tapeFileCounter =   387
(PID.TID 0000.0001) ADWRITE:  tapeFileCounter =   388
(PID.TID 0000.0001) ADWRITE:  tapeFileCounter =   389
(PID.TID 0000.0001) ADWRITE:  tapeFileCounter =   390
(PID.TID 0000.0001) ADWRITE:  tapeFileCounter =   391
(PID.TID 0000.0001) ADWRITE:  tapeFileCounter =   392
(PID.TID 0000.0001) ADWRITE:  tapeFileCounter =   393
(PID.TID 0000.0001) ADWRITE: tid,vid, irec, length, prec(x2)=    39    84     1     6048  8 64 fname=tapelev3_84_the_main_loop_xx_gentim2d0
(PID.TID 0000.0001) ADWRITE:  tapeFileCounter =   394
(PID.TID 0000.0001) ADWRITE:  tapeFileCounter =   395
(PID.TID 0000.0001) ADWRITE:  tapeFileCounter =   396
(PID.TID 0000.0001) ADWRITE:  tapeFileCounter =   397
(PID.TID 0000.0001) ADWRITE:  tapeFileCounter =   398
(PID.TID 0000.0001) ADWRITE:  tapeFileCounter =   399
(PID.TID 0000.0001) ADWRITE:  tapeFileCounter =   400
(PID.TID 0000.0001) ADWRITE:  tapeFileCounter =   401
(PID.TID 0000.0001) ADWRITE:  tapeFileCounter =   402
(PID.TID 0000.0001) ADWRITE: tid,vid, irec, length, prec(x2)=    39    85     1     6048  8 64 fname=tapelev3_85_the_main_loop_xx_gentim2d1
(PID.TID 0000.0001) ADWRITE:  tapeFileCounter =   403
(PID.TID 0000.0001) ADWRITE:  tapeFileCounter =   404
(PID.TID 0000.0001) ADWRITE:  tapeFileCounter =   405
(PID.TID 0000.0001) ADWRITE:  tapeFileCounter =   406
(PID.TID 0000.0001) ADWRITE:  tapeFileCounter =   407
(PID.TID 0000.0001) ADWRITE:  tapeFileCounter =   408
(PID.TID 0000.0001) ADWRITE:  tapeFileCounter =   409
(PID.TID 0000.0001) ADWRITE:  tapeFileCounter =   410
(PID.TID 0000.0001) ADWRITE:  tapeFileCounter =   411
(PID.TID 0000.0001) ADWRITE: tid,vid, irec, length, prec(x2)=    39    87     1      672  8 64 fname=tapelev3_87_the_main_loop_phihydlow
(PID.TID 0000.0001) ADWRITE:  tapeFileCounter =   412
(PID.TID 0000.0001) ADWRITE: tid,vid, irec, length, prec(x2)=    39    88     1      672  8 64 fname=tapelev3_88_the_main_loop_area
(PID.TID 0000.0001) ADWRITE:  tapeFileCounter =   413
(PID.TID 0000.0001) ADWRITE: tid,vid, irec, length, prec(x2)=    39    89     1      672  8 64 fname=tapelev3_89_the_main_loop_heff
(PID.TID 0000.0001) ADWRITE:  tapeFileCounter =   414
(PID.TID 0000.0001) ADWRITE: tid,vid, irec, length, prec(x2)=    39    90     1      672  8 64 fname=tapelev3_90_the_main_loop_hsnow
(PID.TID 0000.0001) ADWRITE:  tapeFileCounter =   415
(PID.TID 0000.0001) ADWRITE: tid,vid, irec, length, prec(x2)=    39    92     1      672  8 64 fname=tapelev3_92_the_main_loop_uice
(PID.TID 0000.0001) ADWRITE:  tapeFileCounter =   416
(PID.TID 0000.0001) ADWRITE: tid,vid, irec, length, prec(x2)=    39    93     1      672  8 64 fname=tapelev3_93_the_main_loop_vice
(PID.TID 0000.0001) ADWRITE:  tapeFileCounter =   417
(PID.TID 0000.0001) ADWRITE: tid,vid, irec, length, prec(x2)=    39    96     1     4704  8 64 fname=tapelev3_96_the_main_loop_tices
(PID.TID 0000.0001) ADWRITE:  tapeFileCounter =   418
(PID.TID 0000.0001) ADWRITE:  tapeFileCounter =   419
(PID.TID 0000.0001) ADWRITE:  tapeFileCounter =   420
(PID.TID 0000.0001) ADWRITE:  tapeFileCounter =   421
(PID.TID 0000.0001) ADWRITE:  tapeFileCounter =   422
(PID.TID 0000.0001) ADWRITE:  tapeFileCounter =   423
(PID.TID 0000.0001) ADWRITE:  tapeFileCounter =   424
(PID.TID 0000.0001) ADWRITE: tid,vid, irec, length, prec(x2)=    39    97     1      672  8 64 fname=tapelev3_97_the_main_loop_dwatn
(PID.TID 0000.0001) ADWRITE:  tapeFileCounter =   425
(PID.TID 0000.0001) ADWRITE: tid,vid, irec, length, prec(x2)=    39    98     1      672  8 64 fname=tapelev3_98_the_main_loop_stressdivergencex
(PID.TID 0000.0001) ADWRITE:  tapeFileCounter =   426
(PID.TID 0000.0001) ADWRITE: tid,vid, irec, length, prec(x2)=    39    99     1      672  8 64 fname=tapelev3_99_the_main_loop_stressdivergencey
(PID.TID 0000.0001) ADWRITE:  tapeFileCounter =   427
(PID.TID 0000.0001) ADWRITE: tid,vid, irec, length, prec(x2)=    39   100     1      672  8 64 fname=tapelev3_100_the_main_loop_seaice_sigma1
(PID.TID 0000.0001) ADWRITE:  tapeFileCounter =   428
(PID.TID 0000.0001) ADWRITE: tid,vid, irec, length, prec(x2)=    39   101     1      672  8 64 fname=tapelev3_101_the_main_loop_seaice_sigma2
(PID.TID 0000.0001) ADWRITE:  tapeFileCounter =   429
(PID.TID 0000.0001) ADWRITE: tid,vid, irec, length, prec(x2)=    39   102     1      672  8 64 fname=tapelev3_102_the_main_loop_seaice_sigma12
(PID.TID 0000.0001) ADWRITE:  tapeFileCounter =   430
(PID.TID 0000.0001) ADWRITE: tid,vid, irec, length, prec(x2)=    39   103     1      672  8 64 fname=tapelev3_103_the_main_loop_hsalt
(PID.TID 0000.0001) ADWRITE:  tapeFileCounter =   431
(PID.TID 0000.0001) whio : write lev 3 rec   1
(PID.TID 0000.0001)  MDS_WRITE_FIELD: it,rec,kS,kL,kH=       1     1   1   1   1 file=m_sst_step.0000000001
(PID.TID 0000.0001)  MDS_READ_FIELD: opening global file: xx_atemp.effective.0000000001.data
(PID.TID 0000.0001)  MDS_READ_FIELD: opening global file: xx_atemp.effective.0000000001.data
(PID.TID 0000.0001) EXF_SET_FLD: processing field "climsss",  file: SSS_monthly.labsea1979
(PID.TID 0000.0001) EXF_SET_FLD:   myIter, count0, count1:         5      1      2
(PID.TID 0000.0001) EXF_SET_FLD:   first, changed, fac:   T   F    0.49316939890710387
(PID.TID 0000.0001) EXF_SET_FLD: field "climsss", it=         5, loading rec=     1
(PID.TID 0000.0001) EXF_SET_FLD:   from file: "SSS_monthly.labsea1979"
(PID.TID 0000.0001)  MDS_READ_FIELD: opening global file: SSS_monthly.labsea1979
(PID.TID 0000.0001) EXF_SET_FLD: field "climsss", it=         5, loading rec=     2
(PID.TID 0000.0001) EXF_SET_FLD:   from file: "SSS_monthly.labsea1979"
(PID.TID 0000.0001)  MDS_READ_FIELD: opening global file: SSS_monthly.labsea1979
(PID.TID 0000.0001) EXF_SET_FLD: processing field "uwind",  file: u10m.labsea1979
(PID.TID 0000.0001) EXF_SET_FLD:   myIter, count0, count1:         5      1      2
(PID.TID 0000.0001) EXF_SET_FLD:   first, changed, fac:   T   F    0.49316939890710387
(PID.TID 0000.0001) EXF_SET_FLD: field "uwind", it=         5, loading rec=     1
(PID.TID 0000.0001) EXF_SET_FLD:   from file: "u10m.labsea1979"
(PID.TID 0000.0001)  MDS_READ_FIELD: opening global file: u10m.labsea1979
(PID.TID 0000.0001) EXF_SET_FLD: field "uwind", it=         5, loading rec=     2
(PID.TID 0000.0001) EXF_SET_FLD:   from file: "u10m.labsea1979"
(PID.TID 0000.0001)  MDS_READ_FIELD: opening global file: u10m.labsea1979
(PID.TID 0000.0001) EXF_SET_FLD: processing field "vwind",  file: v10m.labsea1979
(PID.TID 0000.0001) EXF_SET_FLD:   myIter, count0, count1:         5      1      2
(PID.TID 0000.0001) EXF_SET_FLD:   first, changed, fac:   T   F    0.49316939890710387
(PID.TID 0000.0001) EXF_SET_FLD: field "vwind", it=         5, loading rec=     1
(PID.TID 0000.0001) EXF_SET_FLD:   from file: "v10m.labsea1979"
(PID.TID 0000.0001)  MDS_READ_FIELD: opening global file: v10m.labsea1979
(PID.TID 0000.0001) EXF_SET_FLD: field "vwind", it=         5, loading rec=     2
(PID.TID 0000.0001) EXF_SET_FLD:   from file: "v10m.labsea1979"
(PID.TID 0000.0001)  MDS_READ_FIELD: opening global file: v10m.labsea1979
(PID.TID 0000.0001) EXF_SET_FLD: processing field "atemp",  file: tair.labsea1979
(PID.TID 0000.0001) EXF_SET_FLD:   myIter, count0, count1:         5      1      2
(PID.TID 0000.0001) EXF_SET_FLD:   first, changed, fac:   T   F    0.49316939890710387
(PID.TID 0000.0001) EXF_SET_FLD: field "atemp", it=         5, loading rec=     1
(PID.TID 0000.0001) EXF_SET_FLD:   from file: "tair.labsea1979"
(PID.TID 0000.0001)  MDS_READ_FIELD: opening global file: tair.labsea1979
(PID.TID 0000.0001) EXF_SET_FLD: field "atemp", it=         5, loading rec=     2
(PID.TID 0000.0001) EXF_SET_FLD:   from file: "tair.labsea1979"
(PID.TID 0000.0001)  MDS_READ_FIELD: opening global file: tair.labsea1979
(PID.TID 0000.0001) EXF_SET_FLD: processing field "aqh",  file: qa.labsea1979
(PID.TID 0000.0001) EXF_SET_FLD:   myIter, count0, count1:         5      1      2
(PID.TID 0000.0001) EXF_SET_FLD:   first, changed, fac:   T   F    0.49316939890710387
(PID.TID 0000.0001) EXF_SET_FLD: field "aqh", it=         5, loading rec=     1
(PID.TID 0000.0001) EXF_SET_FLD:   from file: "qa.labsea1979"
(PID.TID 0000.0001)  MDS_READ_FIELD: opening global file: qa.labsea1979
(PID.TID 0000.0001) EXF_SET_FLD: field "aqh", it=         5, loading rec=     2
(PID.TID 0000.0001) EXF_SET_FLD:   from file: "qa.labsea1979"
(PID.TID 0000.0001)  MDS_READ_FIELD: opening global file: qa.labsea1979
(PID.TID 0000.0001) EXF_SET_FLD: processing field "precip",  file: prate.labsea1979
(PID.TID 0000.0001) EXF_SET_FLD:   myIter, count0, count1:         5      1      2
(PID.TID 0000.0001) EXF_SET_FLD:   first, changed, fac:   T   F    0.49316939890710387
(PID.TID 0000.0001) EXF_SET_FLD: field "precip", it=         5, loading rec=     1
(PID.TID 0000.0001) EXF_SET_FLD:   from file: "prate.labsea1979"
(PID.TID 0000.0001)  MDS_READ_FIELD: opening global file: prate.labsea1979
(PID.TID 0000.0001) EXF_SET_FLD: field "precip", it=         5, loading rec=     2
(PID.TID 0000.0001) EXF_SET_FLD:   from file: "prate.labsea1979"
(PID.TID 0000.0001)  MDS_READ_FIELD: opening global file: prate.labsea1979
(PID.TID 0000.0001) EXF_SET_FLD: processing field "swdown",  file: fsh.labsea1979
(PID.TID 0000.0001) EXF_SET_FLD:   myIter, count0, count1:         5      1      2
(PID.TID 0000.0001) EXF_SET_FLD:   first, changed, fac:   T   F    0.49316939890710387
(PID.TID 0000.0001) EXF_SET_FLD: field "swdown", it=         5, loading rec=     1
(PID.TID 0000.0001) EXF_SET_FLD:   from file: "fsh.labsea1979"
(PID.TID 0000.0001)  MDS_READ_FIELD: opening global file: fsh.labsea1979
(PID.TID 0000.0001) EXF_SET_FLD: field "swdown", it=         5, loading rec=     2
(PID.TID 0000.0001) EXF_SET_FLD:   from file: "fsh.labsea1979"
(PID.TID 0000.0001)  MDS_READ_FIELD: opening global file: fsh.labsea1979
(PID.TID 0000.0001) EXF_SET_FLD: processing field "lwdown",  file: flo.labsea1979
(PID.TID 0000.0001) EXF_SET_FLD:   myIter, count0, count1:         5      1      2
(PID.TID 0000.0001) EXF_SET_FLD:   first, changed, fac:   T   F    0.49316939890710387
(PID.TID 0000.0001) EXF_SET_FLD: field "lwdown", it=         5, loading rec=     1
(PID.TID 0000.0001) EXF_SET_FLD:   from file: "flo.labsea1979"
(PID.TID 0000.0001)  MDS_READ_FIELD: opening global file: flo.labsea1979
(PID.TID 0000.0001) EXF_SET_FLD: field "lwdown", it=         5, loading rec=     2
(PID.TID 0000.0001) EXF_SET_FLD:   from file: "flo.labsea1979"
(PID.TID 0000.0001)  MDS_READ_FIELD: opening global file: flo.labsea1979
(PID.TID 0000.0001) // =======================================================
(PID.TID 0000.0001) // Begin MONITOR EXF statistics
(PID.TID 0000.0001) // =======================================================
(PID.TID 0000.0001) %MON exf_tsnumber                 =                     5
(PID.TID 0000.0001) %MON exf_time_sec                 =   1.8000000000000E+04
(PID.TID 0000.0001) %MON exf_ustress_max              =   5.2025127547947E-02
(PID.TID 0000.0001) %MON exf_ustress_min              =  -9.3606971766443E-02
(PID.TID 0000.0001) %MON exf_ustress_mean             =   1.7413931450019E-02
(PID.TID 0000.0001) %MON exf_ustress_sd               =   2.3372101097223E-02
(PID.TID 0000.0001) %MON exf_ustress_del2             =   7.1291780542006E-04
(PID.TID 0000.0001) %MON exf_vstress_max              =   5.3724482011054E-02
(PID.TID 0000.0001) %MON exf_vstress_min              =  -5.8242413269710E-02
(PID.TID 0000.0001) %MON exf_vstress_mean             =  -5.4113452221391E-03
(PID.TID 0000.0001) %MON exf_vstress_sd               =   1.4300676376251E-02
(PID.TID 0000.0001) %MON exf_vstress_del2             =   5.1762341959457E-04
(PID.TID 0000.0001) %MON exf_hflux_max                =   6.2296786437778E+02
(PID.TID 0000.0001) %MON exf_hflux_min                =  -4.8169693752397E+01
(PID.TID 0000.0001) %MON exf_hflux_mean               =   1.4935910592580E+02
(PID.TID 0000.0001) %MON exf_hflux_sd                 =   1.7865414337686E+02
(PID.TID 0000.0001) %MON exf_hflux_del2               =   5.2840805855828E+00
(PID.TID 0000.0001) %MON exf_sflux_max                =   4.0171881872879E-08
(PID.TID 0000.0001) %MON exf_sflux_min                =  -8.8515542028482E-08
(PID.TID 0000.0001) %MON exf_sflux_mean               =  -2.5898272257469E-08
(PID.TID 0000.0001) %MON exf_sflux_sd                 =   3.0761455913950E-08
(PID.TID 0000.0001) %MON exf_sflux_del2               =   9.5819223274860E-10
(PID.TID 0000.0001) %MON exf_uwind_max                =   6.4669118044806E+00
(PID.TID 0000.0001) %MON exf_uwind_min                =  -6.8373719818605E+00
(PID.TID 0000.0001) %MON exf_uwind_mean               =   2.7703104953251E+00
(PID.TID 0000.0001) %MON exf_uwind_sd                 =   2.9914204817202E+00
(PID.TID 0000.0001) %MON exf_uwind_del2               =   8.0271974598066E-02
(PID.TID 0000.0001) %MON exf_vwind_max                =   3.9242191164871E+00
(PID.TID 0000.0001) %MON exf_vwind_min                =  -6.0151738390896E+00
(PID.TID 0000.0001) %MON exf_vwind_mean               =  -7.5780981579906E-01
(PID.TID 0000.0001) %MON exf_vwind_sd                 =   1.7298850990135E+00
(PID.TID 0000.0001) %MON exf_vwind_del2               =   4.8614292446199E-02
(PID.TID 0000.0001) %MON exf_wspeed_max               =   7.8834733013142E+00
(PID.TID 0000.0001) %MON exf_wspeed_min               =   4.5913801314248E-01
(PID.TID 0000.0001) %MON exf_wspeed_mean              =   4.1986352194932E+00
(PID.TID 0000.0001) %MON exf_wspeed_sd                =   1.6004553118739E+00
(PID.TID 0000.0001) %MON exf_wspeed_del2              =   1.3308433427277E-01
(PID.TID 0000.0001) %MON exf_atemp_max                =   2.8222425173567E+02
(PID.TID 0000.0001) %MON exf_atemp_min                =   2.3678944426573E+02
(PID.TID 0000.0001) %MON exf_atemp_mean               =   2.6427283741463E+02
(PID.TID 0000.0001) %MON exf_atemp_sd                 =   1.1990725231039E+01
(PID.TID 0000.0001) %MON exf_atemp_del2               =   1.6502924898699E-01
(PID.TID 0000.0001) %MON exf_aqh_max                  =   6.3196902393613E-03
(PID.TID 0000.0001) %MON exf_aqh_min                  =   1.6322223068205E-04
(PID.TID 0000.0001) %MON exf_aqh_mean                 =   2.4775611281656E-03
(PID.TID 0000.0001) %MON exf_aqh_sd                   =   1.4259923191659E-03
(PID.TID 0000.0001) %MON exf_aqh_del2                 =   1.7537489941007E-05
(PID.TID 0000.0001) %MON exf_lwflux_max               =   1.8504686817546E+02
(PID.TID 0000.0001) %MON exf_lwflux_min               =   3.4516075409599E+01
(PID.TID 0000.0001) %MON exf_lwflux_mean              =   8.1597296647891E+01
(PID.TID 0000.0001) %MON exf_lwflux_sd                =   4.1719355838112E+01
(PID.TID 0000.0001) %MON exf_lwflux_del2              =   8.9604887623858E-01
(PID.TID 0000.0001) %MON exf_evap_max                 =   4.6492776142320E-08
(PID.TID 0000.0001) %MON exf_evap_min                 =  -5.1936928492714E-09
(PID.TID 0000.0001) %MON exf_evap_mean                =   1.0491754065444E-08
(PID.TID 0000.0001) %MON exf_evap_sd                  =   1.1510581093485E-08
(PID.TID 0000.0001) %MON exf_evap_del2                =   4.5193200791708E-10
(PID.TID 0000.0001) %MON exf_precip_max               =   1.0499457022082E-07
(PID.TID 0000.0001) %MON exf_precip_min               =   2.7292535458031E-10
(PID.TID 0000.0001) %MON exf_precip_mean              =   3.6390026322913E-08
(PID.TID 0000.0001) %MON exf_precip_sd                =   2.0580406889746E-08
(PID.TID 0000.0001) %MON exf_precip_del2              =   8.1073423988765E-10
(PID.TID 0000.0001) %MON exf_swflux_max               =  -8.1207169861090E-02
(PID.TID 0000.0001) %MON exf_swflux_min               =  -6.4067465766532E+01
(PID.TID 0000.0001) %MON exf_swflux_mean              =  -2.6505884102323E+01
(PID.TID 0000.0001) %MON exf_swflux_sd                =   1.9645085084315E+01
(PID.TID 0000.0001) %MON exf_swflux_del2              =   8.9712389757958E-02
(PID.TID 0000.0001) %MON exf_swdown_max               =   7.1186073073924E+01
(PID.TID 0000.0001) %MON exf_swdown_min               =   9.0230188734544E-02
(PID.TID 0000.0001) %MON exf_swdown_mean              =   2.9450982335914E+01
(PID.TID 0000.0001) %MON exf_swdown_sd                =   2.1827872315905E+01
(PID.TID 0000.0001) %MON exf_swdown_del2              =   9.9680433064398E-02
(PID.TID 0000.0001) %MON exf_lwdown_max               =   3.0563558759846E+02
(PID.TID 0000.0001) %MON exf_lwdown_min               =   1.1592215771493E+02
(PID.TID 0000.0001) %MON exf_lwdown_mean              =   2.2587078031381E+02
(PID.TID 0000.0001) %MON exf_lwdown_sd                =   4.6297287802066E+01
(PID.TID 0000.0001) %MON exf_lwdown_del2              =   9.0906618417827E-01
(PID.TID 0000.0001) %MON exf_climsss_max              =   3.5041254622037E+01
(PID.TID 0000.0001) %MON exf_climsss_min              =   3.0670109811376E+01
(PID.TID 0000.0001) %MON exf_climsss_mean             =   3.3461926268386E+01
(PID.TID 0000.0001) %MON exf_climsss_sd               =   1.0315988331065E+00
(PID.TID 0000.0001) %MON exf_climsss_del2             =   2.6971039929381E-02
(PID.TID 0000.0001) // =======================================================
(PID.TID 0000.0001) // End MONITOR EXF statistics
(PID.TID 0000.0001) // =======================================================
DEBUG_STATS_RL: Uice pre  iter (SEAICE_LSR  1)  min= -9.02121933428159E-03
DEBUG_STATS_RL: Uice pre  iter (SEAICE_LSR  1)  max=  2.19445684647109E-01
DEBUG_STATS_RL: Uice pre  iter (SEAICE_LSR  1) mean=  6.96639305502532E-02
DEBUG_STATS_RL: Uice pre  iter (SEAICE_LSR  1) S.D.=  7.25590715280224E-02
DEBUG_STATS_RL: Vice pre  iter (SEAICE_LSR  1)  min= -1.73112057819563E-01
DEBUG_STATS_RL: Vice pre  iter (SEAICE_LSR  1)  max=  1.05174802576008E-01
DEBUG_STATS_RL: Vice pre  iter (SEAICE_LSR  1) mean= -3.44957645455127E-02
DEBUG_STATS_RL: Vice pre  iter (SEAICE_LSR  1) S.D.=  5.17027322842165E-02
DEBUG_STATS_RL: Uice pre  iter (SEAICE_LSR  2)  min= -9.93295031152210E-03
DEBUG_STATS_RL: Uice pre  iter (SEAICE_LSR  2)  max=  2.37649472779152E-01
DEBUG_STATS_RL: Uice pre  iter (SEAICE_LSR  2) mean=  7.08960993522900E-02
DEBUG_STATS_RL: Uice pre  iter (SEAICE_LSR  2) S.D.=  7.51814019583860E-02
DEBUG_STATS_RL: Vice pre  iter (SEAICE_LSR  2)  min= -1.73458139241626E-01
DEBUG_STATS_RL: Vice pre  iter (SEAICE_LSR  2)  max=  1.02503634704982E-01
DEBUG_STATS_RL: Vice pre  iter (SEAICE_LSR  2) mean= -3.89801386768760E-02
DEBUG_STATS_RL: Vice pre  iter (SEAICE_LSR  2) S.D.=  5.44920749395038E-02
DEBUG_STATS_RL:                EtaN (DYNAMICS)  min= -1.29709672821213E-01
DEBUG_STATS_RL:                EtaN (DYNAMICS)  max=  3.25626876398477E-01
DEBUG_STATS_RL:                EtaN (DYNAMICS) mean= -3.00841690122536E-03
DEBUG_STATS_RL:                EtaN (DYNAMICS) S.D.=  7.54180814594036E-02
DEBUG_STATS_RL:                Uvel (DYNAMICS)  min= -3.64296443204224E-02
DEBUG_STATS_RL:                Uvel (DYNAMICS)  max=  8.91662112566489E-02
DEBUG_STATS_RL:                Uvel (DYNAMICS) mean=  5.18186102505262E-03
DEBUG_STATS_RL:                Uvel (DYNAMICS) S.D.=  1.36791834404111E-02
DEBUG_STATS_RL:                Vvel (DYNAMICS)  min= -8.48427067731397E-02
DEBUG_STATS_RL:                Vvel (DYNAMICS)  max=  7.15709637633448E-02
DEBUG_STATS_RL:                Vvel (DYNAMICS) mean= -6.25663991250223E-04
DEBUG_STATS_RL:                Vvel (DYNAMICS) S.D.=  1.65568599029307E-02
DEBUG_STATS_RL:                Wvel (DYNAMICS)  min= -2.02998023749463E-04
DEBUG_STATS_RL:                Wvel (DYNAMICS)  max=  3.07634744219620E-04
DEBUG_STATS_RL:                Wvel (DYNAMICS) mean= -2.14485636605179E-07
DEBUG_STATS_RL:                Wvel (DYNAMICS) S.D.=  2.56514188295233E-05
DEBUG_STATS_RL:               Theta (DYNAMICS)  min= -1.95891909892377E+00
DEBUG_STATS_RL:               Theta (DYNAMICS)  max=  1.32575107273067E+01
DEBUG_STATS_RL:               Theta (DYNAMICS) mean=  2.41560973729717E+00
DEBUG_STATS_RL:               Theta (DYNAMICS) S.D.=  2.57506629522921E+00
DEBUG_STATS_RL:                Salt (DYNAMICS)  min=  2.76241835718781E+01
DEBUG_STATS_RL:                Salt (DYNAMICS)  max=  3.54512322319690E+01
DEBUG_STATS_RL:                Salt (DYNAMICS) mean=  3.39367610972827E+01
DEBUG_STATS_RL:                Salt (DYNAMICS) S.D.=  1.15400523729775E+00
DEBUG_STATS_RL:                  Gu (DYNAMICS)  min= -3.40661284878781E-02
DEBUG_STATS_RL:                  Gu (DYNAMICS)  max=  1.09592409505601E-01
DEBUG_STATS_RL:                  Gu (DYNAMICS) mean=  3.43340148231612E-03
DEBUG_STATS_RL:                  Gu (DYNAMICS) S.D.=  1.52106643070904E-02
DEBUG_STATS_RL:                  Gv (DYNAMICS)  min= -1.19743996000496E-01
DEBUG_STATS_RL:                  Gv (DYNAMICS)  max=  5.31755908727337E-02
DEBUG_STATS_RL:                  Gv (DYNAMICS) mean= -6.43607759844673E-03
DEBUG_STATS_RL:                  Gv (DYNAMICS) S.D.=  1.74595586593132E-02
DEBUG_STATS_RL:               GuNm1 (DYNAMICS)  min= -2.94347299884301E-07
DEBUG_STATS_RL:               GuNm1 (DYNAMICS)  max=  1.78770581560375E-07
DEBUG_STATS_RL:               GuNm1 (DYNAMICS) mean= -3.06311171945198E-09
DEBUG_STATS_RL:               GuNm1 (DYNAMICS) S.D.=  4.19614199163276E-08
DEBUG_STATS_RL:               GvNm1 (DYNAMICS)  min= -1.82273635415880E-07
DEBUG_STATS_RL:               GvNm1 (DYNAMICS)  max=  1.24273330978528E-07
DEBUG_STATS_RL:               GvNm1 (DYNAMICS) mean= -1.05360009952046E-09
DEBUG_STATS_RL:               GvNm1 (DYNAMICS) S.D.=  3.58773704868012E-08
DEBUG_STATS_RL:               GtNm1 (DYNAMICS)  min=  0.00000000000000E+00
DEBUG_STATS_RL:               GtNm1 (DYNAMICS)  max=  0.00000000000000E+00
DEBUG_STATS_RL:               GtNm1 (DYNAMICS) mean=  0.00000000000000E+00
DEBUG_STATS_RL:               GtNm1 (DYNAMICS) S.D.=  0.00000000000000E+00
DEBUG_STATS_RL:               GsNm1 (DYNAMICS)  min=  0.00000000000000E+00
DEBUG_STATS_RL:               GsNm1 (DYNAMICS)  max=  0.00000000000000E+00
DEBUG_STATS_RL:               GsNm1 (DYNAMICS) mean=  0.00000000000000E+00
DEBUG_STATS_RL:               GsNm1 (DYNAMICS) S.D.=  0.00000000000000E+00
(PID.TID 0000.0001) SOLVE_FOR_PRESSURE: putPmEinXvector =    F
DEBUG_STATS_RL:    cg2d_b (SOLVE_FOR_PRESSURE)  min= -7.45833771571459E+03
DEBUG_STATS_RL:    cg2d_b (SOLVE_FOR_PRESSURE)  max=  2.17494903027769E+03
DEBUG_STATS_RL:    cg2d_b (SOLVE_FOR_PRESSURE) mean=  4.18935997004155E-13
DEBUG_STATS_RL:    cg2d_b (SOLVE_FOR_PRESSURE) S.D.=  9.06377010650268E+02
 cg2d: Sum(rhs),rhsMax =   8.29197821516914E-15  1.20041496847834E+00
DEBUG_STATS_RL:    cg2d_x (SOLVE_FOR_PRESSURE)  min= -1.23196163368130E+00
DEBUG_STATS_RL:    cg2d_x (SOLVE_FOR_PRESSURE)  max=  3.23727429689848E+00
DEBUG_STATS_RL:    cg2d_x (SOLVE_FOR_PRESSURE) mean= -3.45194761148230E-02
DEBUG_STATS_RL:    cg2d_x (SOLVE_FOR_PRESSURE) S.D.=  7.10912240392561E-01
(PID.TID 0000.0001)      cg2d_init_res =   7.77205564074111E-02
(PID.TID 0000.0001)      cg2d_iters(min,last) =      -1      44
(PID.TID 0000.0001)      cg2d_last_res =   3.78154127695059E-14
DEBUG_STATS_RL:          Uvel (THERMODYNAMICS)  min= -3.59096386964102E-02
DEBUG_STATS_RL:          Uvel (THERMODYNAMICS)  max=  1.01288605318195E-01
DEBUG_STATS_RL:          Uvel (THERMODYNAMICS) mean=  5.06442107691443E-03
DEBUG_STATS_RL:          Uvel (THERMODYNAMICS) S.D.=  1.40087544095653E-02
DEBUG_STATS_RL:          Vvel (THERMODYNAMICS)  min= -1.10756263988798E-01
DEBUG_STATS_RL:          Vvel (THERMODYNAMICS)  max=  7.07208418107748E-02
DEBUG_STATS_RL:          Vvel (THERMODYNAMICS) mean= -2.17557054828444E-03
DEBUG_STATS_RL:          Vvel (THERMODYNAMICS) S.D.=  1.80912833066385E-02
DEBUG_STATS_RL:          Wvel (THERMODYNAMICS)  min= -2.43811460414301E-04
DEBUG_STATS_RL:          Wvel (THERMODYNAMICS)  max=  3.28816353261790E-04
DEBUG_STATS_RL:          Wvel (THERMODYNAMICS) mean= -1.37923543342930E-07
DEBUG_STATS_RL:          Wvel (THERMODYNAMICS) S.D.=  2.75149300864468E-05
DEBUG_STATS_RL:         Theta (THERMODYNAMICS)  min= -1.96015217723737E+00
DEBUG_STATS_RL:         Theta (THERMODYNAMICS)  max=  1.32512671183370E+01
DEBUG_STATS_RL:         Theta (THERMODYNAMICS) mean=  2.41531606071968E+00
DEBUG_STATS_RL:         Theta (THERMODYNAMICS) S.D.=  2.57483151675911E+00
DEBUG_STATS_RL:          Salt (THERMODYNAMICS)  min=  2.76290307531745E+01
DEBUG_STATS_RL:          Salt (THERMODYNAMICS)  max=  3.54512307060718E+01
DEBUG_STATS_RL:          Salt (THERMODYNAMICS) mean=  3.39367446276238E+01
DEBUG_STATS_RL:          Salt (THERMODYNAMICS) S.D.=  1.15382313156805E+00
DEBUG_STATS_RL:         GtNm1 (THERMODYNAMICS)  min=  0.00000000000000E+00
DEBUG_STATS_RL:         GtNm1 (THERMODYNAMICS)  max=  0.00000000000000E+00
DEBUG_STATS_RL:         GtNm1 (THERMODYNAMICS) mean=  0.00000000000000E+00
DEBUG_STATS_RL:         GtNm1 (THERMODYNAMICS) S.D.=  0.00000000000000E+00
DEBUG_STATS_RL:         GsNm1 (THERMODYNAMICS)  min=  0.00000000000000E+00
DEBUG_STATS_RL:         GsNm1 (THERMODYNAMICS)  max=  0.00000000000000E+00
DEBUG_STATS_RL:         GsNm1 (THERMODYNAMICS) mean=  0.00000000000000E+00
DEBUG_STATS_RL:         GsNm1 (THERMODYNAMICS) S.D.=  0.00000000000000E+00
(PID.TID 0000.0001) // =======================================================
(PID.TID 0000.0001) // Begin MONITOR dynamic field statistics
(PID.TID 0000.0001) // =======================================================
(PID.TID 0000.0001) %MON time_tsnumber                =                     6
(PID.TID 0000.0001) %MON time_secondsf                =   2.1600000000000E+04
(PID.TID 0000.0001) %MON dynstat_eta_max              =   3.2980910967220E-01
(PID.TID 0000.0001) %MON dynstat_eta_min              =  -1.2551057843446E-01
(PID.TID 0000.0001) %MON dynstat_eta_mean             =  -3.4551515210578E-16
(PID.TID 0000.0001) %MON dynstat_eta_sd               =   7.9756929802667E-02
(PID.TID 0000.0001) %MON dynstat_eta_del2             =   2.2526762869836E-03
(PID.TID 0000.0001) %MON dynstat_uvel_max             =   1.0128860531819E-01
(PID.TID 0000.0001) %MON dynstat_uvel_min             =  -3.5909638696410E-02
(PID.TID 0000.0001) %MON dynstat_uvel_mean            =   5.0699973946868E-04
(PID.TID 0000.0001) %MON dynstat_uvel_sd              =   8.2243381079779E-03
(PID.TID 0000.0001) %MON dynstat_uvel_del2            =   3.2267465968285E-04
(PID.TID 0000.0001) %MON dynstat_vvel_max             =   7.0720841810775E-02
(PID.TID 0000.0001) %MON dynstat_vvel_min             =  -1.1075626398880E-01
(PID.TID 0000.0001) %MON dynstat_vvel_mean            =  -3.1204228061697E-04
(PID.TID 0000.0001) %MON dynstat_vvel_sd              =   9.4412568494778E-03
(PID.TID 0000.0001) %MON dynstat_vvel_del2            =   2.2335139662046E-04
(PID.TID 0000.0001) %MON dynstat_wvel_max             =   3.2881635326179E-04
(PID.TID 0000.0001) %MON dynstat_wvel_min             =  -2.4381146041430E-04
(PID.TID 0000.0001) %MON dynstat_wvel_mean            =   1.0936390170538E-21
(PID.TID 0000.0001) %MON dynstat_wvel_sd              =   5.4173049241075E-05
(PID.TID 0000.0001) %MON dynstat_wvel_del2            =   8.6691740567471E-07
(PID.TID 0000.0001) %MON dynstat_theta_max            =   1.3251267118337E+01
(PID.TID 0000.0001) %MON dynstat_theta_min            =  -1.9601521772374E+00
(PID.TID 0000.0001) %MON dynstat_theta_mean           =   3.0732563509114E+00
(PID.TID 0000.0001) %MON dynstat_theta_sd             =   1.4280861043723E+00
(PID.TID 0000.0001) %MON dynstat_theta_del2           =   9.8336792993238E-03
(PID.TID 0000.0001) %MON dynstat_salt_max             =   3.5451230706072E+01
(PID.TID 0000.0001) %MON dynstat_salt_min             =   2.7629030753175E+01
(PID.TID 0000.0001) %MON dynstat_salt_mean            =   3.4746190387727E+01
(PID.TID 0000.0001) %MON dynstat_salt_sd              =   5.1267164525303E-01
(PID.TID 0000.0001) %MON dynstat_salt_del2            =   3.6509497524948E-03
(PID.TID 0000.0001) %MON dynstat_sst_max              =   5.4939870174841E+00
(PID.TID 0000.0001) %MON dynstat_sst_min              =  -1.9601521772374E+00
(PID.TID 0000.0001) %MON dynstat_sst_mean             =  -1.2408924198752E+00
(PID.TID 0000.0001) %MON dynstat_sst_sd               =   1.4403697741512E+00
(PID.TID 0000.0001) %MON dynstat_sst_del2             =   3.0469598764514E-02
(PID.TID 0000.0001) %MON dynstat_sss_max              =   3.2699533411077E+01
(PID.TID 0000.0001) %MON dynstat_sss_min              =   2.7629030753175E+01
(PID.TID 0000.0001) %MON dynstat_sss_mean             =   3.1224067918224E+01
(PID.TID 0000.0001) %MON dynstat_sss_sd               =   1.1632977612747E+00
(PID.TID 0000.0001) %MON dynstat_sss_del2             =   2.2332435514896E-02
(PID.TID 0000.0001) %MON forcing_qnet_max             =   1.4809504730571E+02
(PID.TID 0000.0001) %MON forcing_qnet_min             =  -4.8169693752397E+01
(PID.TID 0000.0001) %MON forcing_qnet_mean            =   3.4204041626544E+01
(PID.TID 0000.0001) %MON forcing_qnet_sd              =   3.9102479859055E+01
(PID.TID 0000.0001) %MON forcing_qnet_del2            =   3.0822543339815E+00
(PID.TID 0000.0001) %MON forcing_qsw_max              =   0.0000000000000E+00
(PID.TID 0000.0001) %MON forcing_qsw_min              =  -6.4067465766532E+01
(PID.TID 0000.0001) %MON forcing_qsw_mean             =  -1.6508178061872E+01
(PID.TID 0000.0001) %MON forcing_qsw_sd               =   2.3071275893855E+01
(PID.TID 0000.0001) %MON forcing_qsw_del2             =   1.0599232445071E+00
(PID.TID 0000.0001) %MON forcing_empmr_max            =   7.9533187250553E-05
(PID.TID 0000.0001) %MON forcing_empmr_min            =  -3.5085884727389E-04
(PID.TID 0000.0001) %MON forcing_empmr_mean           =  -6.2267177770676E-05
(PID.TID 0000.0001) %MON forcing_empmr_sd             =   8.3723214513405E-05
(PID.TID 0000.0001) %MON forcing_empmr_del2           =   8.0139709599093E-06
(PID.TID 0000.0001) %MON forcing_fu_max               =   7.8677164942646E-02
(PID.TID 0000.0001) %MON forcing_fu_min               =  -5.3029686046339E-03
(PID.TID 0000.0001) %MON forcing_fu_mean              =   2.4502703175175E-02
(PID.TID 0000.0001) %MON forcing_fu_sd                =   2.2381392605381E-02
(PID.TID 0000.0001) %MON forcing_fu_del2              =   1.0099969362325E-03
(PID.TID 0000.0001) %MON forcing_fv_max               =   1.0529820675179E-02
(PID.TID 0000.0001) %MON forcing_fv_min               =  -6.1500664983111E-02
(PID.TID 0000.0001) %MON forcing_fv_mean              =  -8.7085786162427E-03
(PID.TID 0000.0001) %MON forcing_fv_sd                =   1.5328325617483E-02
(PID.TID 0000.0001) %MON forcing_fv_del2              =   6.0851667438899E-04
(PID.TID 0000.0001) %MON trAdv_CFL_u_max              =   2.4993510275359E-03
(PID.TID 0000.0001) %MON trAdv_CFL_v_max              =   1.8374065630956E-03
(PID.TID 0000.0001) %MON trAdv_CFL_w_max              =   6.6516342133251E-03
(PID.TID 0000.0001) %MON advcfl_uvel_max              =   2.4992241384917E-03
(PID.TID 0000.0001) %MON advcfl_vvel_max              =   1.7928990215274E-03
(PID.TID 0000.0001) %MON advcfl_wvel_max              =   6.3206950153501E-03
(PID.TID 0000.0001) %MON advcfl_W_hf_max              =   7.5848340184201E-03
(PID.TID 0000.0001) %MON pe_b_mean                    =   2.0970544007866E-05
(PID.TID 0000.0001) %MON ke_max                       =   8.1403877418366E-03
(PID.TID 0000.0001) %MON ke_mean                      =   6.1552329715486E-05
(PID.TID 0000.0001) %MON ke_vol                       =   5.3036189546438E+15
(PID.TID 0000.0001) %MON vort_r_min                   =  -9.0690929664971E-07
(PID.TID 0000.0001) %MON vort_r_max                   =   4.2778475822572E-07
(PID.TID 0000.0001) %MON vort_a_mean                  =   1.2067277321409E-04
(PID.TID 0000.0001) %MON vort_a_sd                    =   8.8121135230902E-06
(PID.TID 0000.0001) %MON vort_p_mean                  =   1.7734842756493E-04
(PID.TID 0000.0001) %MON vort_p_sd                    =   1.1689574047703E-04
(PID.TID 0000.0001) %MON surfExpan_theta_mean         =   9.8182882285465E-07
(PID.TID 0000.0001) %MON surfExpan_salt_mean          =   8.4302295210227E-07
(PID.TID 0000.0001) // =======================================================
(PID.TID 0000.0001) // End MONITOR dynamic field statistics
(PID.TID 0000.0001) // =======================================================
(PID.TID 0000.0001) // =======================================================
(PID.TID 0000.0001) // Begin MONITOR SEAICE statistics
(PID.TID 0000.0001) // =======================================================
(PID.TID 0000.0001) %MON seaice_tsnumber              =                     6
(PID.TID 0000.0001) %MON seaice_time_sec              =   2.1600000000000E+04
(PID.TID 0000.0001) %MON seaice_uice_max              =   2.4085997379950E-01
(PID.TID 0000.0001) %MON seaice_uice_min              =  -1.1910675919661E-02
(PID.TID 0000.0001) %MON seaice_uice_mean             =   8.8258234061458E-02
(PID.TID 0000.0001) %MON seaice_uice_sd               =   7.6536719315543E-02
(PID.TID 0000.0001) %MON seaice_uice_del2             =   2.3916313334486E-03
(PID.TID 0000.0001) %MON seaice_vice_max              =   9.6635861308140E-02
(PID.TID 0000.0001) %MON seaice_vice_min              =  -1.7413234267821E-01
(PID.TID 0000.0001) %MON seaice_vice_mean             =  -4.3479920082434E-02
(PID.TID 0000.0001) %MON seaice_vice_sd               =   5.8397421936172E-02
(PID.TID 0000.0001) %MON seaice_vice_del2             =   1.8049354081115E-03
(PID.TID 0000.0001) %MON seaice_area_max              =   1.0000000000000E+00
(PID.TID 0000.0001) %MON seaice_area_min              =   0.0000000000000E+00
(PID.TID 0000.0001) %MON seaice_area_mean             =   6.3950277050931E-01
(PID.TID 0000.0001) %MON seaice_area_sd               =   4.7902023213597E-01
(PID.TID 0000.0001) %MON seaice_area_del2             =   3.0552145003478E-02
(PID.TID 0000.0001) %MON seaice_heff_max              =   5.7138299875921E-01
(PID.TID 0000.0001) %MON seaice_heff_min              =   0.0000000000000E+00
(PID.TID 0000.0001) %MON seaice_heff_mean             =   1.7795583501392E-01
(PID.TID 0000.0001) %MON seaice_heff_sd               =   1.8373921026293E-01
(PID.TID 0000.0001) %MON seaice_heff_del2             =   3.9824480115348E-03
(PID.TID 0000.0001) %MON seaice_hsnow_max             =   2.0007531378885E-01
(PID.TID 0000.0001) %MON seaice_hsnow_min             =   0.0000000000000E+00
(PID.TID 0000.0001) %MON seaice_hsnow_mean            =   6.3082445921493E-02
(PID.TID 0000.0001) %MON seaice_hsnow_sd              =   6.5122222822307E-02
(PID.TID 0000.0001) %MON seaice_hsnow_del2            =   1.4118006335029E-03
(PID.TID 0000.0001) %MON seaice_hsalt_max             =   5.0479553258779E+03
(PID.TID 0000.0001) %MON seaice_hsalt_min             =   0.0000000000000E+00
(PID.TID 0000.0001) %MON seaice_hsalt_mean            =   1.4636077146759E+03
(PID.TID 0000.0001) %MON seaice_hsalt_sd              =   1.5917999945543E+03
(PID.TID 0000.0001) %MON seaice_hsalt_del2            =   3.6125586495557E+01
(PID.TID 0000.0001) // =======================================================
(PID.TID 0000.0001) // End MONITOR SEAICE statistics
(PID.TID 0000.0001) // =======================================================
 Computing Diagnostic #     23  ETAN         Counter:       1   Parms: SM      M1      
(PID.TID 0000.0001)  MDS_WRITE_FIELD: it,rec,kS,kL,kH=       6    -1  46   1   1 file=diags/state_2d_set1.0000000006
 Computing Diagnostic #    294  SIarea       Counter:       1   Parms: SM      M1      
(PID.TID 0000.0001)  MDS_WRITE_FIELD: it,rec,kS,kL,kH=       6    -2  46   1   1 file=diags/state_2d_set1.0000000006
 Computing Diagnostic #    297  SIheff       Counter:       1   Parms: SM      M1      
(PID.TID 0000.0001)  MDS_WRITE_FIELD: it,rec,kS,kL,kH=       6    -3  46   1   1 file=diags/state_2d_set1.0000000006
 Computing Diagnostic #    299  SIhsnow      Counter:       1   Parms: SM      M1      
(PID.TID 0000.0001)  MDS_WRITE_FIELD: it,rec,kS,kL,kH=       6    -4  46   1   1 file=diags/state_2d_set1.0000000006
 Computing Diagnostic #     25  DETADT2      Counter:       1   Parms: SM      M1      
(PID.TID 0000.0001)  MDS_WRITE_FIELD: it,rec,kS,kL,kH=       6    -5  46   1   1 file=diags/state_2d_set1.0000000006
 Computing Diagnostic #     73  PHIBOT       Counter:       1   Parms: SM      M1      
(PID.TID 0000.0001)  MDS_WRITE_FIELD: it,rec,kS,kL,kH=       6    -6  46   1   1 file=diags/state_2d_set1.0000000006
 Computing Diagnostic #     82  sIceLoad     Counter:       1   Parms: SM      U1      
(PID.TID 0000.0001)  MDS_WRITE_FIELD: it,rec,kS,kL,kH=       6    -7  46   1   1 file=diags/state_2d_set1.0000000006
 Computing Diagnostic #     76  MXLDEPTH     Counter:       1   Parms: SM      M1      
(PID.TID 0000.0001)  MDS_WRITE_FIELD: it,rec,kS,kL,kH=       6    -8  46   1   1 file=diags/state_2d_set1.0000000006
 Computing Diagnostic #    325  SIatmFW      Counter:       1   Parms: SM      U1      
(PID.TID 0000.0001)  MDS_WRITE_FIELD: it,rec,kS,kL,kH=       6    -9  46   1   1 file=diags/state_2d_set1.0000000006
 Computing Diagnostic #     85  oceQnet      Counter:       1   Parms: SM      U1      
(PID.TID 0000.0001)  MDS_WRITE_FIELD: it,rec,kS,kL,kH=       6   -10  46   1   1 file=diags/state_2d_set1.0000000006
 Computing Diagnostic #     83  oceFWflx     Counter:       1   Parms: SM      U1      
(PID.TID 0000.0001)  MDS_WRITE_FIELD: it,rec,kS,kL,kH=       6   -11  46   1   1 file=diags/state_2d_set1.0000000006
 Computing Diagnostic #     79  oceTAUX      Counter:       1   Parms: UU      U1      
           Vector  Mate for  oceTAUX      Diagnostic #     80  oceTAUY  exists 
(PID.TID 0000.0001)  MDS_WRITE_FIELD: it,rec,kS,kL,kH=       6   -12  46   1   1 file=diags/state_2d_set1.0000000006
 Computing Diagnostic #     80  oceTAUY      Counter:       1   Parms: VV      U1      
           Vector  Mate for  oceTAUY      Diagnostic #     79  oceTAUX  exists 
(PID.TID 0000.0001)  MDS_WRITE_FIELD: it,rec,kS,kL,kH=       6   -13  46   1   1 file=diags/state_2d_set1.0000000006
 Computing Diagnostic #    311  SIuice       Counter:       1   Parms: UU      M1      
           Vector  Mate for  SIuice       Diagnostic #    312  SIvice   exists 
(PID.TID 0000.0001)  MDS_WRITE_FIELD: it,rec,kS,kL,kH=       6   -14  46   1   1 file=diags/state_2d_set1.0000000006
 Computing Diagnostic #    312  SIvice       Counter:       1   Parms: VV      M1      
           Vector  Mate for  SIvice       Diagnostic #    311  SIuice   exists 
(PID.TID 0000.0001)  MDS_WRITE_FIELD: it,rec,kS,kL,kH=       6   -15  46   1   1 file=diags/state_2d_set1.0000000006
 Computing Diagnostic #     24  ETANSQ       Counter:       1   Parms: SM P    M1      
(PID.TID 0000.0001)  MDS_WRITE_FIELD: it,rec,kS,kL,kH=       6   -16  46   1   1 file=diags/state_2d_set1.0000000006
 Computing Diagnostic #     26  THETA        Counter:       1   Parms: SMR     MR      
(PID.TID 0000.0001)  MDS_WRITE_FIELD: it,rec,kS,kL,kH=       6    -1  46   1  23 file=diags/state_3d_set1.0000000006
 Computing Diagnostic #     27  SALT         Counter:       1   Parms: SMR     MR      
(PID.TID 0000.0001)  MDS_WRITE_FIELD: it,rec,kS,kL,kH=       6    -2  46   1  23 file=diags/state_3d_set1.0000000006
 Computing Diagnostic #     45  UVELMASS     Counter:       1   Parms: UUr     MR      
           Vector  Mate for  UVELMASS     Diagnostic #     46  VVELMASS exists 
(PID.TID 0000.0001)  MDS_WRITE_FIELD: it,rec,kS,kL,kH=       6    -1  46   1  23 file=diags/trsp_3d_set1.0000000006
 Computing Diagnostic #     46  VVELMASS     Counter:       1   Parms: VVr     MR      
           Vector  Mate for  VVELMASS     Diagnostic #     45  UVELMASS exists 
(PID.TID 0000.0001)  MDS_WRITE_FIELD: it,rec,kS,kL,kH=       6    -2  46   1  23 file=diags/trsp_3d_set1.0000000006
 Computing Diagnostic #    224  EXFpreci     Counter:       1   Parms: SM      U1      
(PID.TID 0000.0001)  MDS_WRITE_FIELD: it,rec,kS,kL,kH=       6    -1  46   1   1 file=diags/exf_zflux_set1.0000000006
 Computing Diagnostic #    223  EXFevap      Counter:       1   Parms: SM      U1      
(PID.TID 0000.0001)  MDS_WRITE_FIELD: it,rec,kS,kL,kH=       6    -2  46   1   1 file=diags/exf_zflux_set1.0000000006
 Computing Diagnostic #    228  EXFroff      Counter:       1   Parms: SM      U1      
(PID.TID 0000.0001)  MDS_WRITE_FIELD: it,rec,kS,kL,kH=       6    -3  46   1   1 file=diags/exf_zflux_set1.0000000006
 Computing Diagnostic #    226  EXFempmr     Counter:       1   Parms: SM      U1      
(PID.TID 0000.0001)  MDS_WRITE_FIELD: it,rec,kS,kL,kH=       6    -4  46   1   1 file=diags/exf_zflux_set1.0000000006
 Computing Diagnostic #    212  EXFswdn      Counter:       1   Parms: SM      U1      
(PID.TID 0000.0001)  MDS_WRITE_FIELD: it,rec,kS,kL,kH=       6    -5  46   1   1 file=diags/exf_zflux_set1.0000000006
 Computing Diagnostic #    211  EXFlwdn      Counter:       1   Parms: SM      U1      
(PID.TID 0000.0001)  MDS_WRITE_FIELD: it,rec,kS,kL,kH=       6    -6  46   1   1 file=diags/exf_zflux_set1.0000000006
 Computing Diagnostic #    210  EXFswnet     Counter:       1   Parms: SM      U1      
(PID.TID 0000.0001)  MDS_WRITE_FIELD: it,rec,kS,kL,kH=       6    -7  46   1   1 file=diags/exf_zflux_set1.0000000006
 Computing Diagnostic #    209  EXFlwnet     Counter:       1   Parms: SM      U1      
(PID.TID 0000.0001)  MDS_WRITE_FIELD: it,rec,kS,kL,kH=       6    -8  46   1   1 file=diags/exf_zflux_set1.0000000006
 Computing Diagnostic #    213  EXFqnet      Counter:       1   Parms: SM      U1      
(PID.TID 0000.0001)  MDS_WRITE_FIELD: it,rec,kS,kL,kH=       6    -9  46   1   1 file=diags/exf_zflux_set1.0000000006
 Computing Diagnostic #    221  EXFatemp     Counter:       1   Parms: SM      U1      
(PID.TID 0000.0001)  MDS_WRITE_FIELD: it,rec,kS,kL,kH=       6   -10  46   1   1 file=diags/exf_zflux_set1.0000000006
 Computing Diagnostic #    222  EXFaqh       Counter:       1   Parms: SM      U1      
(PID.TID 0000.0001)  MDS_WRITE_FIELD: it,rec,kS,kL,kH=       6   -11  46   1   1 file=diags/exf_zflux_set1.0000000006
 Computing Diagnostic #    214  EXFtaux      Counter:       1   Parms: UM      U1      
(PID.TID 0000.0001)  MDS_WRITE_FIELD: it,rec,kS,kL,kH=       6   -12  46   1   1 file=diags/exf_zflux_set1.0000000006
 Computing Diagnostic #    215  EXFtauy      Counter:       1   Parms: VM      U1      
(PID.TID 0000.0001)  MDS_WRITE_FIELD: it,rec,kS,kL,kH=       6   -13  46   1   1 file=diags/exf_zflux_set1.0000000006
 Computing Diagnostic #    216  EXFuwind     Counter:       1   Parms: UM      U1      
(PID.TID 0000.0001)  MDS_WRITE_FIELD: it,rec,kS,kL,kH=       6   -14  46   1   1 file=diags/exf_zflux_set1.0000000006
 Computing Diagnostic #    217  EXFvwind     Counter:       1   Parms: VM      U1      
(PID.TID 0000.0001)  MDS_WRITE_FIELD: it,rec,kS,kL,kH=       6   -15  46   1   1 file=diags/exf_zflux_set1.0000000006
 Computing Diagnostic #    227  EXFpress     Counter:       1   Parms: SM      U1      
(PID.TID 0000.0001)  MDS_WRITE_FIELD: it,rec,kS,kL,kH=       6   -16  46   1   1 file=diags/exf_zflux_set1.0000000006
 Computing Diagnostic #    207  EXFhs        Counter:       1   Parms: SM      U1      
(PID.TID 0000.0001)  MDS_WRITE_FIELD: it,rec,kS,kL,kH=       6   -17  46   1   1 file=diags/exf_zflux_set1.0000000006
 Computing Diagnostic #    208  EXFhl        Counter:       1   Parms: SM      U1      
(PID.TID 0000.0001)  MDS_WRITE_FIELD: it,rec,kS,kL,kH=       6   -18  46   1   1 file=diags/exf_zflux_set1.0000000006
(PID.TID 0000.0001)  write diagnostics summary to file: diagnostics_status.0000000006.txt
(PID.TID 0000.0001)  MDS_WRITE_FIELD: it,rec,kS,kL,kH=       6     1  23   1  23 file=pickup_cd.0000000006
(PID.TID 0000.0001)  MDS_WRITE_FIELD: it,rec,kS,kL,kH=       6     2  23   1  23 file=pickup_cd.0000000006
(PID.TID 0000.0001)  MDS_WRITE_FIELD: it,rec,kS,kL,kH=       6     3  23   1  23 file=pickup_cd.0000000006
(PID.TID 0000.0001)  MDS_WRITE_FIELD: it,rec,kS,kL,kH=       6     4  23   1  23 file=pickup_cd.0000000006
(PID.TID 0000.0001)  MDS_WRITE_FIELD: it,rec,kS,kL,kH=       6    93   1   1   1 file=pickup_cd.0000000006
(PID.TID 0000.0001)  MDS_WRITE_FIELD: it,rec,kS,kL,kH=       6    -1   7   1   7 file=pickup_seaice.0000000006
(PID.TID 0000.0001)  MDS_WRITE_FIELD: it,rec,kS,kL,kH=       6    -8   1   1   1 file=pickup_seaice.0000000006
(PID.TID 0000.0001)  MDS_WRITE_FIELD: it,rec,kS,kL,kH=       6    -9   1   1   1 file=pickup_seaice.0000000006
(PID.TID 0000.0001)  MDS_WRITE_FIELD: it,rec,kS,kL,kH=       6   -10   1   1   1 file=pickup_seaice.0000000006
(PID.TID 0000.0001)  MDS_WRITE_FIELD: it,rec,kS,kL,kH=       6   -11   1   1   1 file=pickup_seaice.0000000006
(PID.TID 0000.0001)  MDS_WRITE_FIELD: it,rec,kS,kL,kH=       6   -12   1   1   1 file=pickup_seaice.0000000006
(PID.TID 0000.0001)  MDS_WRITE_FIELD: it,rec,kS,kL,kH=       6   -13   1   1   1 file=pickup_seaice.0000000006
(PID.TID 0000.0001)  MDS_WRITE_FIELD: it,rec,kS,kL,kH=       6    -1  23   1  23 file=pickup.0000000006
(PID.TID 0000.0001)  MDS_WRITE_FIELD: it,rec,kS,kL,kH=       6    -2  23   1  23 file=pickup.0000000006
(PID.TID 0000.0001)  MDS_WRITE_FIELD: it,rec,kS,kL,kH=       6    -3  23   1  23 file=pickup.0000000006
(PID.TID 0000.0001)  MDS_WRITE_FIELD: it,rec,kS,kL,kH=       6    -4  23   1  23 file=pickup.0000000006
(PID.TID 0000.0001)  MDS_WRITE_FIELD: it,rec,kS,kL,kH=       6    -5  23   1  23 file=pickup.0000000006
(PID.TID 0000.0001)  MDS_WRITE_FIELD: it,rec,kS,kL,kH=       6    -6  23   1  23 file=pickup.0000000006
(PID.TID 0000.0001)  MDS_WRITE_FIELD: it,rec,kS,kL,kH=       6  -139   1   1   1 file=pickup.0000000006
(PID.TID 0000.0001)  MDS_WRITE_FIELD: it,rec,kS,kL,kH=       6  -140   1   1   1 file=pickup.0000000006
(PID.TID 0000.0001)  MDS_WRITE_FIELD: it,rec,kS,kL,kH=       6  -141   1   1   1 file=pickup.0000000006
(PID.TID 0000.0001) %CHECKPOINT         6 0000000006
(PID.TID 0000.0001)  MDS_WRITE_FIELD: it,rec,kS,kL,kH=       1     2   1   1   1 file=m_sst_step.0000000001
(PID.TID 0000.0001)  MDS_READ_FIELD: opening global file: xx_atemp.effective.0000000001.data
(PID.TID 0000.0001) EXF_SET_FLD: processing field "climsss",  file: SSS_monthly.labsea1979
(PID.TID 0000.0001) EXF_SET_FLD:   myIter, count0, count1:         6      1      2
(PID.TID 0000.0001) EXF_SET_FLD:   first, changed, fac:   F   F    0.49180327868852458
(PID.TID 0000.0001) EXF_SET_FLD: processing field "uwind",  file: u10m.labsea1979
(PID.TID 0000.0001) EXF_SET_FLD:   myIter, count0, count1:         6      1      2
(PID.TID 0000.0001) EXF_SET_FLD:   first, changed, fac:   F   F    0.49180327868852458
(PID.TID 0000.0001) EXF_SET_FLD: processing field "vwind",  file: v10m.labsea1979
(PID.TID 0000.0001) EXF_SET_FLD:   myIter, count0, count1:         6      1      2
(PID.TID 0000.0001) EXF_SET_FLD:   first, changed, fac:   F   F    0.49180327868852458
(PID.TID 0000.0001) EXF_SET_FLD: processing field "atemp",  file: tair.labsea1979
(PID.TID 0000.0001) EXF_SET_FLD:   myIter, count0, count1:         6      1      2
(PID.TID 0000.0001) EXF_SET_FLD:   first, changed, fac:   F   F    0.49180327868852458
(PID.TID 0000.0001) EXF_SET_FLD: processing field "aqh",  file: qa.labsea1979
(PID.TID 0000.0001) EXF_SET_FLD:   myIter, count0, count1:         6      1      2
(PID.TID 0000.0001) EXF_SET_FLD:   first, changed, fac:   F   F    0.49180327868852458
(PID.TID 0000.0001) EXF_SET_FLD: processing field "precip",  file: prate.labsea1979
(PID.TID 0000.0001) EXF_SET_FLD:   myIter, count0, count1:         6      1      2
(PID.TID 0000.0001) EXF_SET_FLD:   first, changed, fac:   F   F    0.49180327868852458
(PID.TID 0000.0001) EXF_SET_FLD: processing field "swdown",  file: fsh.labsea1979
(PID.TID 0000.0001) EXF_SET_FLD:   myIter, count0, count1:         6      1      2
(PID.TID 0000.0001) EXF_SET_FLD:   first, changed, fac:   F   F    0.49180327868852458
(PID.TID 0000.0001) EXF_SET_FLD: processing field "lwdown",  file: flo.labsea1979
(PID.TID 0000.0001) EXF_SET_FLD:   myIter, count0, count1:         6      1      2
(PID.TID 0000.0001) EXF_SET_FLD:   first, changed, fac:   F   F    0.49180327868852458
(PID.TID 0000.0001) // =======================================================
(PID.TID 0000.0001) // Begin MONITOR EXF statistics
(PID.TID 0000.0001) // =======================================================
(PID.TID 0000.0001) %MON exf_tsnumber                 =                     6
(PID.TID 0000.0001) %MON exf_time_sec                 =   2.1600000000000E+04
(PID.TID 0000.0001) %MON exf_ustress_max              =   5.1999687271220E-02
(PID.TID 0000.0001) %MON exf_ustress_min              =  -9.3582232062428E-02
(PID.TID 0000.0001) %MON exf_ustress_mean             =   1.7371606854737E-02
(PID.TID 0000.0001) %MON exf_ustress_sd               =   2.3346076593825E-02
(PID.TID 0000.0001) %MON exf_ustress_del2             =   7.1280906339131E-04
(PID.TID 0000.0001) %MON exf_vstress_max              =   5.3710485684438E-02
(PID.TID 0000.0001) %MON exf_vstress_min              =  -5.8202269830865E-02
(PID.TID 0000.0001) %MON exf_vstress_mean             =  -5.4017142103257E-03
(PID.TID 0000.0001) %MON exf_vstress_sd               =   1.4291054902594E-02
(PID.TID 0000.0001) %MON exf_vstress_del2             =   5.1792541302638E-04
(PID.TID 0000.0001) %MON exf_hflux_max                =   6.2211188935256E+02
(PID.TID 0000.0001) %MON exf_hflux_min                =  -4.8233164788795E+01
(PID.TID 0000.0001) %MON exf_hflux_mean               =   1.4906539993267E+02
(PID.TID 0000.0001) %MON exf_hflux_sd                 =   1.7850959861429E+02
(PID.TID 0000.0001) %MON exf_hflux_del2               =   5.2772126229603E+00
(PID.TID 0000.0001) %MON exf_sflux_max                =   4.0156460739539E-08
(PID.TID 0000.0001) %MON exf_sflux_min                =  -8.8491661834517E-08
(PID.TID 0000.0001) %MON exf_sflux_mean               =  -2.5899023230362E-08
(PID.TID 0000.0001) %MON exf_sflux_sd                 =   3.0753926965498E-08
(PID.TID 0000.0001) %MON exf_sflux_del2               =   9.5842086521836E-10
(PID.TID 0000.0001) %MON exf_uwind_max                =   6.4674192569295E+00
(PID.TID 0000.0001) %MON exf_uwind_min                =  -6.8373987635628E+00
(PID.TID 0000.0001) %MON exf_uwind_mean               =   2.7704180476695E+00
(PID.TID 0000.0001) %MON exf_uwind_sd                 =   2.9916966488382E+00
(PID.TID 0000.0001) %MON exf_uwind_del2               =   8.0271791541414E-02
(PID.TID 0000.0001) %MON exf_vwind_max                =   3.9242492972827E+00
(PID.TID 0000.0001) %MON exf_vwind_min                =  -6.0142679292648E+00
(PID.TID 0000.0001) %MON exf_vwind_mean               =  -7.5719204270894E-01
(PID.TID 0000.0001) %MON exf_vwind_sd                 =   1.7299937065642E+00
(PID.TID 0000.0001) %MON exf_vwind_del2               =   4.8614164244439E-02
(PID.TID 0000.0001) %MON exf_wspeed_max               =   7.8835115525503E+00
(PID.TID 0000.0001) %MON exf_wspeed_min               =   4.5889518386928E-01
(PID.TID 0000.0001) %MON exf_wspeed_mean              =   4.1987383082859E+00
(PID.TID 0000.0001) %MON exf_wspeed_sd                =   1.6007122259633E+00
(PID.TID 0000.0001) %MON exf_wspeed_del2              =   1.3308959148978E-01
(PID.TID 0000.0001) %MON exf_atemp_max                =   2.8227253958280E+02
(PID.TID 0000.0001) %MON exf_atemp_min                =   2.3683497929808E+02
(PID.TID 0000.0001) %MON exf_atemp_mean               =   2.6431819332927E+02
(PID.TID 0000.0001) %MON exf_atemp_sd                 =   1.1992188200331E+01
(PID.TID 0000.0001) %MON exf_atemp_del2               =   1.6503800216198E-01
(PID.TID 0000.0001) %MON exf_aqh_max                  =   6.3189936985002E-03
(PID.TID 0000.0001) %MON exf_aqh_min                  =   1.6312812718364E-04
(PID.TID 0000.0001) %MON exf_aqh_mean                 =   2.4770007717611E-03
(PID.TID 0000.0001) %MON exf_aqh_sd                   =   1.4258893952382E-03
(PID.TID 0000.0001) %MON exf_aqh_del2                 =   1.7535631762858E-05
(PID.TID 0000.0001) %MON exf_lwflux_max               =   1.8505639905837E+02
(PID.TID 0000.0001) %MON exf_lwflux_min               =   3.4525968339334E+01
(PID.TID 0000.0001) %MON exf_lwflux_mean              =   8.1615243213266E+01
(PID.TID 0000.0001) %MON exf_lwflux_sd                =   4.1714947238783E+01
(PID.TID 0000.0001) %MON exf_lwflux_del2              =   8.9600122100586E-01
(PID.TID 0000.0001) %MON exf_evap_max                 =   4.6476692298049E-08
(PID.TID 0000.0001) %MON exf_evap_min                 =  -5.1620310887308E-09
(PID.TID 0000.0001) %MON exf_evap_mean                =   1.0490992248517E-08
(PID.TID 0000.0001) %MON exf_evap_sd                  =   1.1503160843955E-08
(PID.TID 0000.0001) %MON exf_evap_del2                =   4.5190874880728E-10
(PID.TID 0000.0001) %MON exf_precip_max               =   1.0499595166344E-07
(PID.TID 0000.0001) %MON exf_precip_min               =   2.7279142810763E-10
(PID.TID 0000.0001) %MON exf_precip_mean              =   3.6390015478879E-08
(PID.TID 0000.0001) %MON exf_precip_sd                =   2.0580860600171E-08
(PID.TID 0000.0001) %MON exf_precip_del2              =   8.1093194829687E-10
(PID.TID 0000.0001) %MON exf_swflux_max               =  -8.1207452738871E-02
(PID.TID 0000.0001) %MON exf_swflux_min               =  -6.4086336117103E+01
(PID.TID 0000.0001) %MON exf_swflux_mean              =  -2.6516416318198E+01
(PID.TID 0000.0001) %MON exf_swflux_sd                =   1.9648923659484E+01
(PID.TID 0000.0001) %MON exf_swflux_del2              =   8.9741128190352E-02
(PID.TID 0000.0001) %MON exf_swdown_max               =   7.1207040130115E+01
(PID.TID 0000.0001) %MON exf_swdown_min               =   9.0230503043190E-02
(PID.TID 0000.0001) %MON exf_swdown_mean              =   2.9462684797997E+01
(PID.TID 0000.0001) %MON exf_swdown_sd                =   2.1832137399427E+01
(PID.TID 0000.0001) %MON exf_swdown_del2              =   9.9712364655946E-02
(PID.TID 0000.0001) %MON exf_lwdown_max               =   3.0562676151463E+02
(PID.TID 0000.0001) %MON exf_lwdown_min               =   1.1590705083628E+02
(PID.TID 0000.0001) %MON exf_lwdown_mean              =   2.2585507298474E+02
(PID.TID 0000.0001) %MON exf_lwdown_sd                =   4.6301263017486E+01
(PID.TID 0000.0001) %MON exf_lwdown_del2              =   9.0911423554589E-01
(PID.TID 0000.0001) %MON exf_climsss_max              =   3.5041439369077E+01
(PID.TID 0000.0001) %MON exf_climsss_min              =   3.0670869139374E+01
(PID.TID 0000.0001) %MON exf_climsss_mean             =   3.3462447601866E+01
(PID.TID 0000.0001) %MON exf_climsss_sd               =   1.0315283113566E+00
(PID.TID 0000.0001) %MON exf_climsss_del2             =   2.6970144903599E-02
(PID.TID 0000.0001) // =======================================================
(PID.TID 0000.0001) // End MONITOR EXF statistics
(PID.TID 0000.0001) // =======================================================
DEBUG_STATS_RL: Uice pre  iter (SEAICE_LSR  1)  min= -1.19106759196614E-02
DEBUG_STATS_RL: Uice pre  iter (SEAICE_LSR  1)  max=  2.40859973799500E-01
DEBUG_STATS_RL: Uice pre  iter (SEAICE_LSR  1) mean=  7.02597534860948E-02
DEBUG_STATS_RL: Uice pre  iter (SEAICE_LSR  1) S.D.=  7.57773428259753E-02
DEBUG_STATS_RL: Vice pre  iter (SEAICE_LSR  1)  min= -1.74132342678207E-01
DEBUG_STATS_RL: Vice pre  iter (SEAICE_LSR  1)  max=  9.66358613081399E-02
DEBUG_STATS_RL: Vice pre  iter (SEAICE_LSR  1) mean= -4.28491368242810E-02
DEBUG_STATS_RL: Vice pre  iter (SEAICE_LSR  1) S.D.=  5.63763392291550E-02
DEBUG_STATS_RL: Uice pre  iter (SEAICE_LSR  2)  min= -1.30564509125757E-02
DEBUG_STATS_RL: Uice pre  iter (SEAICE_LSR  2)  max=  2.47901039964918E-01
DEBUG_STATS_RL: Uice pre  iter (SEAICE_LSR  2) mean=  6.80717062410296E-02
DEBUG_STATS_RL: Uice pre  iter (SEAICE_LSR  2) S.D.=  7.48548542542582E-02
DEBUG_STATS_RL: Vice pre  iter (SEAICE_LSR  2)  min= -1.68314830999124E-01
DEBUG_STATS_RL: Vice pre  iter (SEAICE_LSR  2)  max=  8.87290074915900E-02
DEBUG_STATS_RL: Vice pre  iter (SEAICE_LSR  2) mean= -4.61137817409455E-02
DEBUG_STATS_RL: Vice pre  iter (SEAICE_LSR  2) S.D.=  5.74118961796309E-02
DEBUG_STATS_RL:                EtaN (DYNAMICS)  min= -1.25510578434462E-01
DEBUG_STATS_RL:                EtaN (DYNAMICS)  max=  3.29809109672203E-01
DEBUG_STATS_RL:                EtaN (DYNAMICS) mean= -3.51679735470302E-03
DEBUG_STATS_RL:                EtaN (DYNAMICS) S.D.=  7.24267737471536E-02
DEBUG_STATS_RL:                Uvel (DYNAMICS)  min= -3.59096386964102E-02
DEBUG_STATS_RL:                Uvel (DYNAMICS)  max=  1.01288605318195E-01
DEBUG_STATS_RL:                Uvel (DYNAMICS) mean=  5.06442107691443E-03
DEBUG_STATS_RL:                Uvel (DYNAMICS) S.D.=  1.40087544095653E-02
DEBUG_STATS_RL:                Vvel (DYNAMICS)  min= -1.10756263988798E-01
DEBUG_STATS_RL:                Vvel (DYNAMICS)  max=  7.07208418107748E-02
DEBUG_STATS_RL:                Vvel (DYNAMICS) mean= -2.17557054828444E-03
DEBUG_STATS_RL:                Vvel (DYNAMICS) S.D.=  1.80912833066385E-02
DEBUG_STATS_RL:                Wvel (DYNAMICS)  min= -2.43811460414301E-04
DEBUG_STATS_RL:                Wvel (DYNAMICS)  max=  3.28816353261790E-04
DEBUG_STATS_RL:                Wvel (DYNAMICS) mean= -1.37923543342930E-07
DEBUG_STATS_RL:                Wvel (DYNAMICS) S.D.=  2.75149300864468E-05
DEBUG_STATS_RL:               Theta (DYNAMICS)  min= -1.96015217723737E+00
DEBUG_STATS_RL:               Theta (DYNAMICS)  max=  1.32512671183370E+01
DEBUG_STATS_RL:               Theta (DYNAMICS) mean=  2.41531606071968E+00
DEBUG_STATS_RL:               Theta (DYNAMICS) S.D.=  2.57483151675911E+00
DEBUG_STATS_RL:                Salt (DYNAMICS)  min=  2.76290307531745E+01
DEBUG_STATS_RL:                Salt (DYNAMICS)  max=  3.54512307060718E+01
DEBUG_STATS_RL:                Salt (DYNAMICS) mean=  3.39367446276238E+01
DEBUG_STATS_RL:                Salt (DYNAMICS) S.D.=  1.15382313156805E+00
DEBUG_STATS_RL:                  Gu (DYNAMICS)  min= -4.45840116890899E-02
DEBUG_STATS_RL:                  Gu (DYNAMICS)  max=  1.13252404039500E-01
DEBUG_STATS_RL:                  Gu (DYNAMICS) mean=  3.02808241161229E-03
DEBUG_STATS_RL:                  Gu (DYNAMICS) S.D.=  1.59063121238893E-02
DEBUG_STATS_RL:                  Gv (DYNAMICS)  min= -1.34630447324912E-01
DEBUG_STATS_RL:                  Gv (DYNAMICS)  max=  4.81174890382835E-02
DEBUG_STATS_RL:                  Gv (DYNAMICS) mean= -7.41639241987065E-03
DEBUG_STATS_RL:                  Gv (DYNAMICS) S.D.=  1.85638365104700E-02
DEBUG_STATS_RL:               GuNm1 (DYNAMICS)  min= -3.33271036892904E-07
DEBUG_STATS_RL:               GuNm1 (DYNAMICS)  max=  1.87479663955270E-07
DEBUG_STATS_RL:               GuNm1 (DYNAMICS) mean= -3.31200046769952E-09
DEBUG_STATS_RL:               GuNm1 (DYNAMICS) S.D.=  4.08419141881971E-08
DEBUG_STATS_RL:               GvNm1 (DYNAMICS)  min= -2.04912919624491E-07
DEBUG_STATS_RL:               GvNm1 (DYNAMICS)  max=  1.56710147054438E-07
DEBUG_STATS_RL:               GvNm1 (DYNAMICS) mean= -8.96938696731291E-10
DEBUG_STATS_RL:               GvNm1 (DYNAMICS) S.D.=  3.95873164870957E-08
DEBUG_STATS_RL:               GtNm1 (DYNAMICS)  min=  0.00000000000000E+00
DEBUG_STATS_RL:               GtNm1 (DYNAMICS)  max=  0.00000000000000E+00
DEBUG_STATS_RL:               GtNm1 (DYNAMICS) mean=  0.00000000000000E+00
DEBUG_STATS_RL:               GtNm1 (DYNAMICS) S.D.=  0.00000000000000E+00
DEBUG_STATS_RL:               GsNm1 (DYNAMICS)  min=  0.00000000000000E+00
DEBUG_STATS_RL:               GsNm1 (DYNAMICS)  max=  0.00000000000000E+00
DEBUG_STATS_RL:               GsNm1 (DYNAMICS) mean=  0.00000000000000E+00
DEBUG_STATS_RL:               GsNm1 (DYNAMICS) S.D.=  0.00000000000000E+00
DEBUG_STATS_RL:    cg2d_b (SOLVE_FOR_PRESSURE)  min= -7.43169656861245E+03
DEBUG_STATS_RL:    cg2d_b (SOLVE_FOR_PRESSURE)  max=  2.17598296942634E+03
DEBUG_STATS_RL:    cg2d_b (SOLVE_FOR_PRESSURE) mean=  6.96331881044898E-13
DEBUG_STATS_RL:    cg2d_b (SOLVE_FOR_PRESSURE) S.D.=  9.02750100849735E+02
 cg2d: Sum(rhs),rhsMax =   1.41067713066434E-14  1.19612709187932E+00
DEBUG_STATS_RL:    cg2d_x (SOLVE_FOR_PRESSURE)  min= -1.18794061890904E+00
DEBUG_STATS_RL:    cg2d_x (SOLVE_FOR_PRESSURE)  max=  3.24511049575726E+00
DEBUG_STATS_RL:    cg2d_x (SOLVE_FOR_PRESSURE) mean= -3.88654400025836E-02
DEBUG_STATS_RL:    cg2d_x (SOLVE_FOR_PRESSURE) S.D.=  6.81167535252279E-01
(PID.TID 0000.0001)      cg2d_init_res =   6.75087261058502E-02
(PID.TID 0000.0001)      cg2d_iters(min,last) =      -1      44
(PID.TID 0000.0001)      cg2d_last_res =   4.79854470369427E-14
DEBUG_STATS_RL:          Uvel (THERMODYNAMICS)  min= -3.57601727936033E-02
DEBUG_STATS_RL:          Uvel (THERMODYNAMICS)  max=  1.04775938290593E-01
DEBUG_STATS_RL:          Uvel (THERMODYNAMICS) mean=  4.39725630125182E-03
DEBUG_STATS_RL:          Uvel (THERMODYNAMICS) S.D.=  1.39028540310335E-02
DEBUG_STATS_RL:          Vvel (THERMODYNAMICS)  min= -1.27584762387762E-01
DEBUG_STATS_RL:          Vvel (THERMODYNAMICS)  max=  6.50083276838834E-02
DEBUG_STATS_RL:          Vvel (THERMODYNAMICS) mean= -3.36887217582008E-03
DEBUG_STATS_RL:          Vvel (THERMODYNAMICS) S.D.=  1.85890275650197E-02
DEBUG_STATS_RL:          Wvel (THERMODYNAMICS)  min= -2.67954696014334E-04
DEBUG_STATS_RL:          Wvel (THERMODYNAMICS)  max=  3.29804232734301E-04
DEBUG_STATS_RL:          Wvel (THERMODYNAMICS) mean= -4.85616750767614E-08
DEBUG_STATS_RL:          Wvel (THERMODYNAMICS) S.D.=  2.84164537902804E-05
DEBUG_STATS_RL:         Theta (THERMODYNAMICS)  min= -1.95963016104374E+00
DEBUG_STATS_RL:         Theta (THERMODYNAMICS)  max=  1.32396343409662E+01
DEBUG_STATS_RL:         Theta (THERMODYNAMICS) mean=  2.41506584132490E+00
DEBUG_STATS_RL:         Theta (THERMODYNAMICS) S.D.=  2.57443936967394E+00
DEBUG_STATS_RL:          Salt (THERMODYNAMICS)  min=  2.76338867569799E+01
DEBUG_STATS_RL:          Salt (THERMODYNAMICS)  max=  3.54511617149686E+01
DEBUG_STATS_RL:          Salt (THERMODYNAMICS) mean=  3.39367496241626E+01
DEBUG_STATS_RL:          Salt (THERMODYNAMICS) S.D.=  1.15359229307638E+00
DEBUG_STATS_RL:         GtNm1 (THERMODYNAMICS)  min=  0.00000000000000E+00
DEBUG_STATS_RL:         GtNm1 (THERMODYNAMICS)  max=  0.00000000000000E+00
DEBUG_STATS_RL:         GtNm1 (THERMODYNAMICS) mean=  0.00000000000000E+00
DEBUG_STATS_RL:         GtNm1 (THERMODYNAMICS) S.D.=  0.00000000000000E+00
DEBUG_STATS_RL:         GsNm1 (THERMODYNAMICS)  min=  0.00000000000000E+00
DEBUG_STATS_RL:         GsNm1 (THERMODYNAMICS)  max=  0.00000000000000E+00
DEBUG_STATS_RL:         GsNm1 (THERMODYNAMICS) mean=  0.00000000000000E+00
DEBUG_STATS_RL:         GsNm1 (THERMODYNAMICS) S.D.=  0.00000000000000E+00
(PID.TID 0000.0001) // =======================================================
(PID.TID 0000.0001) // Begin MONITOR dynamic field statistics
(PID.TID 0000.0001) // =======================================================
(PID.TID 0000.0001) %MON time_tsnumber                =                     7
(PID.TID 0000.0001) %MON time_secondsf                =   2.5200000000000E+04
(PID.TID 0000.0001) %MON dynstat_eta_max              =   3.3060745097164E-01
(PID.TID 0000.0001) %MON dynstat_eta_min              =  -1.2102577722289E-01
(PID.TID 0000.0001) %MON dynstat_eta_mean             =  -3.2761967839518E-16
(PID.TID 0000.0001) %MON dynstat_eta_sd               =   7.6689887548940E-02
(PID.TID 0000.0001) %MON dynstat_eta_del2             =   2.3512695689537E-03
(PID.TID 0000.0001) %MON dynstat_uvel_max             =   1.0477593829059E-01
(PID.TID 0000.0001) %MON dynstat_uvel_min             =  -3.5760172793603E-02
(PID.TID 0000.0001) %MON dynstat_uvel_mean            =   3.9142487791093E-04
(PID.TID 0000.0001) %MON dynstat_uvel_sd              =   8.6384196848567E-03
(PID.TID 0000.0001) %MON dynstat_uvel_del2            =   3.1514329361019E-04
(PID.TID 0000.0001) %MON dynstat_vvel_max             =   6.5008327683883E-02
(PID.TID 0000.0001) %MON dynstat_vvel_min             =  -1.2758476238776E-01
(PID.TID 0000.0001) %MON dynstat_vvel_mean            =  -1.6636191577720E-04
(PID.TID 0000.0001) %MON dynstat_vvel_sd              =   8.8216736418657E-03
(PID.TID 0000.0001) %MON dynstat_vvel_del2            =   2.4528337813958E-04
(PID.TID 0000.0001) %MON dynstat_wvel_max             =   3.2980423273430E-04
(PID.TID 0000.0001) %MON dynstat_wvel_min             =  -2.6795469601433E-04
(PID.TID 0000.0001) %MON dynstat_wvel_mean            =   1.1461584048784E-21
(PID.TID 0000.0001) %MON dynstat_wvel_sd              =   5.6131535081675E-05
(PID.TID 0000.0001) %MON dynstat_wvel_del2            =   8.7639476954987E-07
(PID.TID 0000.0001) %MON dynstat_theta_max            =   1.3239634340966E+01
(PID.TID 0000.0001) %MON dynstat_theta_min            =  -1.9596301610437E+00
(PID.TID 0000.0001) %MON dynstat_theta_mean           =   3.0732383286663E+00
(PID.TID 0000.0001) %MON dynstat_theta_sd             =   1.4280124129180E+00
(PID.TID 0000.0001) %MON dynstat_theta_del2           =   9.8240413861681E-03
(PID.TID 0000.0001) %MON dynstat_salt_max             =   3.5451161714969E+01
(PID.TID 0000.0001) %MON dynstat_salt_min             =   2.7633886756980E+01
(PID.TID 0000.0001) %MON dynstat_salt_mean            =   3.4746190402423E+01
(PID.TID 0000.0001) %MON dynstat_salt_sd              =   5.1262072486719E-01
(PID.TID 0000.0001) %MON dynstat_salt_del2            =   3.6490695700367E-03
(PID.TID 0000.0001) %MON dynstat_sst_max              =   5.4972691914919E+00
(PID.TID 0000.0001) %MON dynstat_sst_min              =  -1.9596301610437E+00
(PID.TID 0000.0001) %MON dynstat_sst_mean             =  -1.2398317360205E+00
(PID.TID 0000.0001) %MON dynstat_sst_sd               =   1.4412911356072E+00
(PID.TID 0000.0001) %MON dynstat_sst_del2             =   3.0404880391879E-02
(PID.TID 0000.0001) %MON dynstat_sss_max              =   3.2702310805654E+01
(PID.TID 0000.0001) %MON dynstat_sss_min              =   2.7633886756980E+01
(PID.TID 0000.0001) %MON dynstat_sss_mean             =   3.1225789693575E+01
(PID.TID 0000.0001) %MON dynstat_sss_sd               =   1.1629318554866E+00
(PID.TID 0000.0001) %MON dynstat_sss_del2             =   2.2314401886548E-02
(PID.TID 0000.0001) %MON forcing_qnet_max             =   1.9319010967837E+02
(PID.TID 0000.0001) %MON forcing_qnet_min             =  -4.8233164788795E+01
(PID.TID 0000.0001) %MON forcing_qnet_mean            =   2.8686105206761E+01
(PID.TID 0000.0001) %MON forcing_qnet_sd              =   4.0736418933318E+01
(PID.TID 0000.0001) %MON forcing_qnet_del2            =   2.5393398484447E+00
(PID.TID 0000.0001) %MON forcing_qsw_max              =   0.0000000000000E+00
(PID.TID 0000.0001) %MON forcing_qsw_min              =  -6.4086336117103E+01
(PID.TID 0000.0001) %MON forcing_qsw_mean             =  -1.6519156773687E+01
(PID.TID 0000.0001) %MON forcing_qsw_sd               =   2.3073141510053E+01
(PID.TID 0000.0001) %MON forcing_qsw_del2             =   1.0599885645713E+00
(PID.TID 0000.0001) %MON forcing_empmr_max            =   1.4582431250706E-04
(PID.TID 0000.0001) %MON forcing_empmr_min            =  -3.4626623312549E-04
(PID.TID 0000.0001) %MON forcing_empmr_mean           =  -4.5867293120499E-05
(PID.TID 0000.0001) %MON forcing_empmr_sd             =   9.4992180798625E-05
(PID.TID 0000.0001) %MON forcing_empmr_del2           =   6.7616748962019E-06
(PID.TID 0000.0001) %MON forcing_fu_max               =   7.9308568371693E-02
(PID.TID 0000.0001) %MON forcing_fu_min               =  -5.1939190574879E-03
(PID.TID 0000.0001) %MON forcing_fu_mean              =   2.4929425919503E-02
(PID.TID 0000.0001) %MON forcing_fu_sd                =   2.2484876955405E-02
(PID.TID 0000.0001) %MON forcing_fu_del2              =   1.0312786626247E-03
(PID.TID 0000.0001) %MON forcing_fv_max               =   1.0504652744095E-02
(PID.TID 0000.0001) %MON forcing_fv_min               =  -6.1585417981365E-02
(PID.TID 0000.0001) %MON forcing_fv_mean              =  -8.7091219355202E-03
(PID.TID 0000.0001) %MON forcing_fv_sd                =   1.5329992531755E-02
(PID.TID 0000.0001) %MON forcing_fv_del2              =   6.3080484737760E-04
(PID.TID 0000.0001) %MON trAdv_CFL_u_max              =   2.5854028516334E-03
(PID.TID 0000.0001) %MON trAdv_CFL_v_max              =   2.1165852956720E-03
(PID.TID 0000.0001) %MON trAdv_CFL_w_max              =   7.5732043306048E-03
(PID.TID 0000.0001) %MON advcfl_uvel_max              =   2.5852715938416E-03
(PID.TID 0000.0001) %MON advcfl_vvel_max              =   2.0653152012238E-03
(PID.TID 0000.0001) %MON advcfl_wvel_max              =   6.4104812771250E-03
(PID.TID 0000.0001) %MON advcfl_W_hf_max              =   7.5732043306048E-03
(PID.TID 0000.0001) %MON pe_b_mean                    =   1.9388715736636E-05
(PID.TID 0000.0001) %MON ke_max                       =   8.8270769496347E-03
(PID.TID 0000.0001) %MON ke_mean                      =   5.9835297968776E-05
(PID.TID 0000.0001) %MON ke_vol                       =   5.3036189546438E+15
(PID.TID 0000.0001) %MON vort_r_min                   =  -9.3478846467623E-07
(PID.TID 0000.0001) %MON vort_r_max                   =   4.4595584545647E-07
(PID.TID 0000.0001) %MON vort_a_mean                  =   1.2067277274431E-04
(PID.TID 0000.0001) %MON vort_a_sd                    =   8.8120317280436E-06
(PID.TID 0000.0001) %MON vort_p_mean                  =   1.7734842687451E-04
(PID.TID 0000.0001) %MON vort_p_sd                    =   1.1689304781653E-04
(PID.TID 0000.0001) %MON surfExpan_theta_mean         =   4.4766038183479E-07
(PID.TID 0000.0001) %MON surfExpan_salt_mean          =   7.7482944416019E-07
(PID.TID 0000.0001) // =======================================================
(PID.TID 0000.0001) // End MONITOR dynamic field statistics
(PID.TID 0000.0001) // =======================================================
(PID.TID 0000.0001) // =======================================================
(PID.TID 0000.0001) // Begin MONITOR SEAICE statistics
(PID.TID 0000.0001) // =======================================================
(PID.TID 0000.0001) %MON seaice_tsnumber              =                     7
(PID.TID 0000.0001) %MON seaice_time_sec              =   2.5200000000000E+04
(PID.TID 0000.0001) %MON seaice_uice_max              =   2.5352428629220E-01
(PID.TID 0000.0001) %MON seaice_uice_min              =  -1.5454919452587E-02
(PID.TID 0000.0001) %MON seaice_uice_mean             =   8.4683236037447E-02
(PID.TID 0000.0001) %MON seaice_uice_sd               =   7.6744875848075E-02
(PID.TID 0000.0001) %MON seaice_uice_del2             =   2.3762706997247E-03
(PID.TID 0000.0001) %MON seaice_vice_max              =   8.1085936845230E-02
(PID.TID 0000.0001) %MON seaice_vice_min              =  -1.6837318302127E-01
(PID.TID 0000.0001) %MON seaice_vice_mean             =  -5.1459065900639E-02
(PID.TID 0000.0001) %MON seaice_vice_sd               =   6.0582301095459E-02
(PID.TID 0000.0001) %MON seaice_vice_del2             =   1.9948346224041E-03
(PID.TID 0000.0001) %MON seaice_area_max              =   1.0000000000000E+00
(PID.TID 0000.0001) %MON seaice_area_min              =   0.0000000000000E+00
(PID.TID 0000.0001) %MON seaice_area_mean             =   6.3925874005073E-01
(PID.TID 0000.0001) %MON seaice_area_sd               =   4.7884166388071E-01
(PID.TID 0000.0001) %MON seaice_area_del2             =   3.0553605939393E-02
(PID.TID 0000.0001) %MON seaice_heff_max              =   5.7107536813538E-01
(PID.TID 0000.0001) %MON seaice_heff_min              =   0.0000000000000E+00
(PID.TID 0000.0001) %MON seaice_heff_mean             =   1.7792347676484E-01
(PID.TID 0000.0001) %MON seaice_heff_sd               =   1.8384328526307E-01
(PID.TID 0000.0001) %MON seaice_heff_del2             =   3.9832214736488E-03
(PID.TID 0000.0001) %MON seaice_hsnow_max             =   1.9999239662862E-01
(PID.TID 0000.0001) %MON seaice_hsnow_min             =   0.0000000000000E+00
(PID.TID 0000.0001) %MON seaice_hsnow_mean            =   6.3063304646044E-02
(PID.TID 0000.0001) %MON seaice_hsnow_sd              =   6.5149383804023E-02
(PID.TID 0000.0001) %MON seaice_hsnow_del2            =   1.4126464547144E-03
(PID.TID 0000.0001) %MON seaice_hsalt_max             =   5.0490210434576E+03
(PID.TID 0000.0001) %MON seaice_hsalt_min             =   0.0000000000000E+00
(PID.TID 0000.0001) %MON seaice_hsalt_mean            =   1.4632070317104E+03
(PID.TID 0000.0001) %MON seaice_hsalt_sd              =   1.5928918825375E+03
(PID.TID 0000.0001) %MON seaice_hsalt_del2            =   3.6097519927038E+01
(PID.TID 0000.0001) // =======================================================
(PID.TID 0000.0001) // End MONITOR SEAICE statistics
(PID.TID 0000.0001) // =======================================================
 Computing Diagnostic #     23  ETAN         Counter:       1   Parms: SM      M1      
(PID.TID 0000.0001)  MDS_WRITE_FIELD: it,rec,kS,kL,kH=       7    -1  46   1   1 file=diags/state_2d_set1.0000000007
 Computing Diagnostic #    294  SIarea       Counter:       1   Parms: SM      M1      
(PID.TID 0000.0001)  MDS_WRITE_FIELD: it,rec,kS,kL,kH=       7    -2  46   1   1 file=diags/state_2d_set1.0000000007
 Computing Diagnostic #    297  SIheff       Counter:       1   Parms: SM      M1      
(PID.TID 0000.0001)  MDS_WRITE_FIELD: it,rec,kS,kL,kH=       7    -3  46   1   1 file=diags/state_2d_set1.0000000007
 Computing Diagnostic #    299  SIhsnow      Counter:       1   Parms: SM      M1      
(PID.TID 0000.0001)  MDS_WRITE_FIELD: it,rec,kS,kL,kH=       7    -4  46   1   1 file=diags/state_2d_set1.0000000007
 Computing Diagnostic #     25  DETADT2      Counter:       1   Parms: SM      M1      
(PID.TID 0000.0001)  MDS_WRITE_FIELD: it,rec,kS,kL,kH=       7    -5  46   1   1 file=diags/state_2d_set1.0000000007
 Computing Diagnostic #     73  PHIBOT       Counter:       1   Parms: SM      M1      
(PID.TID 0000.0001)  MDS_WRITE_FIELD: it,rec,kS,kL,kH=       7    -6  46   1   1 file=diags/state_2d_set1.0000000007
 Computing Diagnostic #     82  sIceLoad     Counter:       1   Parms: SM      U1      
(PID.TID 0000.0001)  MDS_WRITE_FIELD: it,rec,kS,kL,kH=       7    -7  46   1   1 file=diags/state_2d_set1.0000000007
 Computing Diagnostic #     76  MXLDEPTH     Counter:       1   Parms: SM      M1      
(PID.TID 0000.0001)  MDS_WRITE_FIELD: it,rec,kS,kL,kH=       7    -8  46   1   1 file=diags/state_2d_set1.0000000007
 Computing Diagnostic #    325  SIatmFW      Counter:       1   Parms: SM      U1      
(PID.TID 0000.0001)  MDS_WRITE_FIELD: it,rec,kS,kL,kH=       7    -9  46   1   1 file=diags/state_2d_set1.0000000007
 Computing Diagnostic #     85  oceQnet      Counter:       1   Parms: SM      U1      
(PID.TID 0000.0001)  MDS_WRITE_FIELD: it,rec,kS,kL,kH=       7   -10  46   1   1 file=diags/state_2d_set1.0000000007
 Computing Diagnostic #     83  oceFWflx     Counter:       1   Parms: SM      U1      
(PID.TID 0000.0001)  MDS_WRITE_FIELD: it,rec,kS,kL,kH=       7   -11  46   1   1 file=diags/state_2d_set1.0000000007
 Computing Diagnostic #     79  oceTAUX      Counter:       1   Parms: UU      U1      
           Vector  Mate for  oceTAUX      Diagnostic #     80  oceTAUY  exists 
(PID.TID 0000.0001)  MDS_WRITE_FIELD: it,rec,kS,kL,kH=       7   -12  46   1   1 file=diags/state_2d_set1.0000000007
 Computing Diagnostic #     80  oceTAUY      Counter:       1   Parms: VV      U1      
           Vector  Mate for  oceTAUY      Diagnostic #     79  oceTAUX  exists 
(PID.TID 0000.0001)  MDS_WRITE_FIELD: it,rec,kS,kL,kH=       7   -13  46   1   1 file=diags/state_2d_set1.0000000007
 Computing Diagnostic #    311  SIuice       Counter:       1   Parms: UU      M1      
           Vector  Mate for  SIuice       Diagnostic #    312  SIvice   exists 
(PID.TID 0000.0001)  MDS_WRITE_FIELD: it,rec,kS,kL,kH=       7   -14  46   1   1 file=diags/state_2d_set1.0000000007
 Computing Diagnostic #    312  SIvice       Counter:       1   Parms: VV      M1      
           Vector  Mate for  SIvice       Diagnostic #    311  SIuice   exists 
(PID.TID 0000.0001)  MDS_WRITE_FIELD: it,rec,kS,kL,kH=       7   -15  46   1   1 file=diags/state_2d_set1.0000000007
 Computing Diagnostic #     24  ETANSQ       Counter:       1   Parms: SM P    M1      
(PID.TID 0000.0001)  MDS_WRITE_FIELD: it,rec,kS,kL,kH=       7   -16  46   1   1 file=diags/state_2d_set1.0000000007
 Computing Diagnostic #     26  THETA        Counter:       1   Parms: SMR     MR      
(PID.TID 0000.0001)  MDS_WRITE_FIELD: it,rec,kS,kL,kH=       7    -1  46   1  23 file=diags/state_3d_set1.0000000007
 Computing Diagnostic #     27  SALT         Counter:       1   Parms: SMR     MR      
(PID.TID 0000.0001)  MDS_WRITE_FIELD: it,rec,kS,kL,kH=       7    -2  46   1  23 file=diags/state_3d_set1.0000000007
 Computing Diagnostic #     45  UVELMASS     Counter:       1   Parms: UUr     MR      
           Vector  Mate for  UVELMASS     Diagnostic #     46  VVELMASS exists 
(PID.TID 0000.0001)  MDS_WRITE_FIELD: it,rec,kS,kL,kH=       7    -1  46   1  23 file=diags/trsp_3d_set1.0000000007
 Computing Diagnostic #     46  VVELMASS     Counter:       1   Parms: VVr     MR      
           Vector  Mate for  VVELMASS     Diagnostic #     45  UVELMASS exists 
(PID.TID 0000.0001)  MDS_WRITE_FIELD: it,rec,kS,kL,kH=       7    -2  46   1  23 file=diags/trsp_3d_set1.0000000007
 Computing Diagnostic #    224  EXFpreci     Counter:       1   Parms: SM      U1      
(PID.TID 0000.0001)  MDS_WRITE_FIELD: it,rec,kS,kL,kH=       7    -1  46   1   1 file=diags/exf_zflux_set1.0000000007
 Computing Diagnostic #    223  EXFevap      Counter:       1   Parms: SM      U1      
(PID.TID 0000.0001)  MDS_WRITE_FIELD: it,rec,kS,kL,kH=       7    -2  46   1   1 file=diags/exf_zflux_set1.0000000007
 Computing Diagnostic #    228  EXFroff      Counter:       1   Parms: SM      U1      
(PID.TID 0000.0001)  MDS_WRITE_FIELD: it,rec,kS,kL,kH=       7    -3  46   1   1 file=diags/exf_zflux_set1.0000000007
 Computing Diagnostic #    226  EXFempmr     Counter:       1   Parms: SM      U1      
(PID.TID 0000.0001)  MDS_WRITE_FIELD: it,rec,kS,kL,kH=       7    -4  46   1   1 file=diags/exf_zflux_set1.0000000007
 Computing Diagnostic #    212  EXFswdn      Counter:       1   Parms: SM      U1      
(PID.TID 0000.0001)  MDS_WRITE_FIELD: it,rec,kS,kL,kH=       7    -5  46   1   1 file=diags/exf_zflux_set1.0000000007
 Computing Diagnostic #    211  EXFlwdn      Counter:       1   Parms: SM      U1      
(PID.TID 0000.0001)  MDS_WRITE_FIELD: it,rec,kS,kL,kH=       7    -6  46   1   1 file=diags/exf_zflux_set1.0000000007
 Computing Diagnostic #    210  EXFswnet     Counter:       1   Parms: SM      U1      
(PID.TID 0000.0001)  MDS_WRITE_FIELD: it,rec,kS,kL,kH=       7    -7  46   1   1 file=diags/exf_zflux_set1.0000000007
 Computing Diagnostic #    209  EXFlwnet     Counter:       1   Parms: SM      U1      
(PID.TID 0000.0001)  MDS_WRITE_FIELD: it,rec,kS,kL,kH=       7    -8  46   1   1 file=diags/exf_zflux_set1.0000000007
 Computing Diagnostic #    213  EXFqnet      Counter:       1   Parms: SM      U1      
(PID.TID 0000.0001)  MDS_WRITE_FIELD: it,rec,kS,kL,kH=       7    -9  46   1   1 file=diags/exf_zflux_set1.0000000007
 Computing Diagnostic #    221  EXFatemp     Counter:       1   Parms: SM      U1      
(PID.TID 0000.0001)  MDS_WRITE_FIELD: it,rec,kS,kL,kH=       7   -10  46   1   1 file=diags/exf_zflux_set1.0000000007
 Computing Diagnostic #    222  EXFaqh       Counter:       1   Parms: SM      U1      
(PID.TID 0000.0001)  MDS_WRITE_FIELD: it,rec,kS,kL,kH=       7   -11  46   1   1 file=diags/exf_zflux_set1.0000000007
 Computing Diagnostic #    214  EXFtaux      Counter:       1   Parms: UM      U1      
(PID.TID 0000.0001)  MDS_WRITE_FIELD: it,rec,kS,kL,kH=       7   -12  46   1   1 file=diags/exf_zflux_set1.0000000007
 Computing Diagnostic #    215  EXFtauy      Counter:       1   Parms: VM      U1      
(PID.TID 0000.0001)  MDS_WRITE_FIELD: it,rec,kS,kL,kH=       7   -13  46   1   1 file=diags/exf_zflux_set1.0000000007
 Computing Diagnostic #    216  EXFuwind     Counter:       1   Parms: UM      U1      
(PID.TID 0000.0001)  MDS_WRITE_FIELD: it,rec,kS,kL,kH=       7   -14  46   1   1 file=diags/exf_zflux_set1.0000000007
 Computing Diagnostic #    217  EXFvwind     Counter:       1   Parms: VM      U1      
(PID.TID 0000.0001)  MDS_WRITE_FIELD: it,rec,kS,kL,kH=       7   -15  46   1   1 file=diags/exf_zflux_set1.0000000007
 Computing Diagnostic #    227  EXFpress     Counter:       1   Parms: SM      U1      
(PID.TID 0000.0001)  MDS_WRITE_FIELD: it,rec,kS,kL,kH=       7   -16  46   1   1 file=diags/exf_zflux_set1.0000000007
 Computing Diagnostic #    207  EXFhs        Counter:       1   Parms: SM      U1      
(PID.TID 0000.0001)  MDS_WRITE_FIELD: it,rec,kS,kL,kH=       7   -17  46   1   1 file=diags/exf_zflux_set1.0000000007
 Computing Diagnostic #    208  EXFhl        Counter:       1   Parms: SM      U1      
(PID.TID 0000.0001)  MDS_WRITE_FIELD: it,rec,kS,kL,kH=       7   -18  46   1   1 file=diags/exf_zflux_set1.0000000007
(PID.TID 0000.0001)  write diagnostics summary to file: diagnostics_status.0000000007.txt
(PID.TID 0000.0001)  MDS_WRITE_FIELD: it,rec,kS,kL,kH=       7     1  23   1  23 file=pickup_cd.0000000007
(PID.TID 0000.0001)  MDS_WRITE_FIELD: it,rec,kS,kL,kH=       7     2  23   1  23 file=pickup_cd.0000000007
(PID.TID 0000.0001)  MDS_WRITE_FIELD: it,rec,kS,kL,kH=       7     3  23   1  23 file=pickup_cd.0000000007
(PID.TID 0000.0001)  MDS_WRITE_FIELD: it,rec,kS,kL,kH=       7     4  23   1  23 file=pickup_cd.0000000007
(PID.TID 0000.0001)  MDS_WRITE_FIELD: it,rec,kS,kL,kH=       7    93   1   1   1 file=pickup_cd.0000000007
(PID.TID 0000.0001)  MDS_WRITE_FIELD: it,rec,kS,kL,kH=       7    -1   7   1   7 file=pickup_seaice.0000000007
(PID.TID 0000.0001)  MDS_WRITE_FIELD: it,rec,kS,kL,kH=       7    -8   1   1   1 file=pickup_seaice.0000000007
(PID.TID 0000.0001)  MDS_WRITE_FIELD: it,rec,kS,kL,kH=       7    -9   1   1   1 file=pickup_seaice.0000000007
(PID.TID 0000.0001)  MDS_WRITE_FIELD: it,rec,kS,kL,kH=       7   -10   1   1   1 file=pickup_seaice.0000000007
(PID.TID 0000.0001)  MDS_WRITE_FIELD: it,rec,kS,kL,kH=       7   -11   1   1   1 file=pickup_seaice.0000000007
(PID.TID 0000.0001)  MDS_WRITE_FIELD: it,rec,kS,kL,kH=       7   -12   1   1   1 file=pickup_seaice.0000000007
(PID.TID 0000.0001)  MDS_WRITE_FIELD: it,rec,kS,kL,kH=       7   -13   1   1   1 file=pickup_seaice.0000000007
(PID.TID 0000.0001)  MDS_WRITE_FIELD: it,rec,kS,kL,kH=       7    -1  23   1  23 file=pickup.0000000007
(PID.TID 0000.0001)  MDS_WRITE_FIELD: it,rec,kS,kL,kH=       7    -2  23   1  23 file=pickup.0000000007
(PID.TID 0000.0001)  MDS_WRITE_FIELD: it,rec,kS,kL,kH=       7    -3  23   1  23 file=pickup.0000000007
(PID.TID 0000.0001)  MDS_WRITE_FIELD: it,rec,kS,kL,kH=       7    -4  23   1  23 file=pickup.0000000007
(PID.TID 0000.0001)  MDS_WRITE_FIELD: it,rec,kS,kL,kH=       7    -5  23   1  23 file=pickup.0000000007
(PID.TID 0000.0001)  MDS_WRITE_FIELD: it,rec,kS,kL,kH=       7    -6  23   1  23 file=pickup.0000000007
(PID.TID 0000.0001)  MDS_WRITE_FIELD: it,rec,kS,kL,kH=       7  -139   1   1   1 file=pickup.0000000007
(PID.TID 0000.0001)  MDS_WRITE_FIELD: it,rec,kS,kL,kH=       7  -140   1   1   1 file=pickup.0000000007
(PID.TID 0000.0001)  MDS_WRITE_FIELD: it,rec,kS,kL,kH=       7  -141   1   1   1 file=pickup.0000000007
(PID.TID 0000.0001) %CHECKPOINT         7 0000000007
(PID.TID 0000.0001)  MDS_WRITE_FIELD: it,rec,kS,kL,kH=       1     3   1   1   1 file=m_sst_step.0000000001
(PID.TID 0000.0001)  MDS_READ_FIELD: opening global file: xx_atemp.effective.0000000001.data
(PID.TID 0000.0001) EXF_SET_FLD: processing field "climsss",  file: SSS_monthly.labsea1979
(PID.TID 0000.0001) EXF_SET_FLD:   myIter, count0, count1:         7      1      2
(PID.TID 0000.0001) EXF_SET_FLD:   first, changed, fac:   F   F    0.49043715846994540
(PID.TID 0000.0001) EXF_SET_FLD: processing field "uwind",  file: u10m.labsea1979
(PID.TID 0000.0001) EXF_SET_FLD:   myIter, count0, count1:         7      1      2
(PID.TID 0000.0001) EXF_SET_FLD:   first, changed, fac:   F   F    0.49043715846994540
(PID.TID 0000.0001) EXF_SET_FLD: processing field "vwind",  file: v10m.labsea1979
(PID.TID 0000.0001) EXF_SET_FLD:   myIter, count0, count1:         7      1      2
(PID.TID 0000.0001) EXF_SET_FLD:   first, changed, fac:   F   F    0.49043715846994540
(PID.TID 0000.0001) EXF_SET_FLD: processing field "atemp",  file: tair.labsea1979
(PID.TID 0000.0001) EXF_SET_FLD:   myIter, count0, count1:         7      1      2
(PID.TID 0000.0001) EXF_SET_FLD:   first, changed, fac:   F   F    0.49043715846994540
(PID.TID 0000.0001) EXF_SET_FLD: processing field "aqh",  file: qa.labsea1979
(PID.TID 0000.0001) EXF_SET_FLD:   myIter, count0, count1:         7      1      2
(PID.TID 0000.0001) EXF_SET_FLD:   first, changed, fac:   F   F    0.49043715846994540
(PID.TID 0000.0001) EXF_SET_FLD: processing field "precip",  file: prate.labsea1979
(PID.TID 0000.0001) EXF_SET_FLD:   myIter, count0, count1:         7      1      2
(PID.TID 0000.0001) EXF_SET_FLD:   first, changed, fac:   F   F    0.49043715846994540
(PID.TID 0000.0001) EXF_SET_FLD: processing field "swdown",  file: fsh.labsea1979
(PID.TID 0000.0001) EXF_SET_FLD:   myIter, count0, count1:         7      1      2
(PID.TID 0000.0001) EXF_SET_FLD:   first, changed, fac:   F   F    0.49043715846994540
(PID.TID 0000.0001) EXF_SET_FLD: processing field "lwdown",  file: flo.labsea1979
(PID.TID 0000.0001) EXF_SET_FLD:   myIter, count0, count1:         7      1      2
(PID.TID 0000.0001) EXF_SET_FLD:   first, changed, fac:   F   F    0.49043715846994540
(PID.TID 0000.0001) // =======================================================
(PID.TID 0000.0001) // Begin MONITOR EXF statistics
(PID.TID 0000.0001) // =======================================================
(PID.TID 0000.0001) %MON exf_tsnumber                 =                     7
(PID.TID 0000.0001) %MON exf_time_sec                 =   2.5200000000000E+04
(PID.TID 0000.0001) %MON exf_ustress_max              =   5.1974848348126E-02
(PID.TID 0000.0001) %MON exf_ustress_min              =  -9.3557908853774E-02
(PID.TID 0000.0001) %MON exf_ustress_mean             =   1.7329120612702E-02
(PID.TID 0000.0001) %MON exf_ustress_sd               =   2.3320179648557E-02
(PID.TID 0000.0001) %MON exf_ustress_del2             =   7.1270790242100E-04
(PID.TID 0000.0001) %MON exf_vstress_max              =   5.3696728292864E-02
(PID.TID 0000.0001) %MON exf_vstress_min              =  -5.8157744009291E-02
(PID.TID 0000.0001) %MON exf_vstress_mean             =  -5.3922057343806E-03
(PID.TID 0000.0001) %MON exf_vstress_sd               =   1.4281311422160E-02
(PID.TID 0000.0001) %MON exf_vstress_del2             =   5.1825336062953E-04
(PID.TID 0000.0001) %MON exf_hflux_max                =   6.2128399024865E+02
(PID.TID 0000.0001) %MON exf_hflux_min                =  -4.8329712536403E+01
(PID.TID 0000.0001) %MON exf_hflux_mean               =   1.4878283716319E+02
(PID.TID 0000.0001) %MON exf_hflux_sd                 =   1.7837741701130E+02
(PID.TID 0000.0001) %MON exf_hflux_del2               =   5.2705765147464E+00
(PID.TID 0000.0001) %MON exf_sflux_max                =   4.0144672116408E-08
(PID.TID 0000.0001) %MON exf_sflux_min                =  -8.8488401011851E-08
(PID.TID 0000.0001) %MON exf_sflux_mean               =  -2.5898650011404E-08
(PID.TID 0000.0001) %MON exf_sflux_sd                 =   3.0748588956783E-08
(PID.TID 0000.0001) %MON exf_sflux_del2               =   9.5867900332364E-10
(PID.TID 0000.0001) %MON exf_uwind_max                =   6.4679267093784E+00
(PID.TID 0000.0001) %MON exf_uwind_min                =  -6.8374255452651E+00
(PID.TID 0000.0001) %MON exf_uwind_mean               =   2.7705256000140E+00
(PID.TID 0000.0001) %MON exf_uwind_sd                 =   2.9919728561678E+00
(PID.TID 0000.0001) %MON exf_uwind_del2               =   8.0271611876722E-02
(PID.TID 0000.0001) %MON exf_vwind_max                =   3.9242794780783E+00
(PID.TID 0000.0001) %MON exf_vwind_min                =  -6.0133620194399E+00
(PID.TID 0000.0001) %MON exf_vwind_mean               =  -7.5657426961883E-01
(PID.TID 0000.0001) %MON exf_vwind_sd                 =   1.7301024272674E+00
(PID.TID 0000.0001) %MON exf_vwind_del2               =   4.8614042867994E-02
(PID.TID 0000.0001) %MON exf_wspeed_max               =   7.8835498038073E+00
(PID.TID 0000.0001) %MON exf_wspeed_min               =   4.5865235699732E-01
(PID.TID 0000.0001) %MON exf_wspeed_mean              =   4.1988415259832E+00
(PID.TID 0000.0001) %MON exf_wspeed_sd                =   1.6009692521540E+00
(PID.TID 0000.0001) %MON exf_wspeed_del2              =   1.3309485848196E-01
(PID.TID 0000.0001) %MON exf_atemp_max                =   2.8232082742993E+02
(PID.TID 0000.0001) %MON exf_atemp_min                =   2.3688051433042E+02
(PID.TID 0000.0001) %MON exf_atemp_mean               =   2.6436354924392E+02
(PID.TID 0000.0001) %MON exf_atemp_sd                 =   1.1993651656543E+01
(PID.TID 0000.0001) %MON exf_atemp_del2               =   1.6504680183121E-01
(PID.TID 0000.0001) %MON exf_aqh_max                  =   6.3182971576392E-03
(PID.TID 0000.0001) %MON exf_aqh_min                  =   1.6303402368524E-04
(PID.TID 0000.0001) %MON exf_aqh_mean                 =   2.4764404153565E-03
(PID.TID 0000.0001) %MON exf_aqh_sd                   =   1.4257865072101E-03
(PID.TID 0000.0001) %MON exf_aqh_del2                 =   1.7533776408527E-05
(PID.TID 0000.0001) %MON exf_lwflux_max               =   1.8507026487672E+02
(PID.TID 0000.0001) %MON exf_lwflux_min               =   3.4533974459612E+01
(PID.TID 0000.0001) %MON exf_lwflux_mean              =   8.1635236635806E+01
(PID.TID 0000.0001) %MON exf_lwflux_sd                =   4.1713445733197E+01
(PID.TID 0000.0001) %MON exf_lwflux_del2              =   8.9595777999677E-01
(PID.TID 0000.0001) %MON exf_evap_max                 =   4.6464240963988E-08
(PID.TID 0000.0001) %MON exf_evap_min                 =  -5.1368006840269E-09
(PID.TID 0000.0001) %MON exf_evap_mean                =   1.0491354623440E-08
(PID.TID 0000.0001) %MON exf_evap_sd                  =   1.1497503867767E-08
(PID.TID 0000.0001) %MON exf_evap_del2                =   4.5192807410212E-10
(PID.TID 0000.0001) %MON exf_precip_max               =   1.0499733310606E-07
(PID.TID 0000.0001) %MON exf_precip_min               =   2.7265750163496E-10
(PID.TID 0000.0001) %MON exf_precip_mean              =   3.6390004634845E-08
(PID.TID 0000.0001) %MON exf_precip_sd                =   2.0581314966068E-08
(PID.TID 0000.0001) %MON exf_precip_del2              =   8.1112973350766E-10
(PID.TID 0000.0001) %MON exf_swflux_max               =  -8.1207735616653E-02
(PID.TID 0000.0001) %MON exf_swflux_min               =  -6.4105206467675E+01
(PID.TID 0000.0001) %MON exf_swflux_mean              =  -2.6526948534072E+01
(PID.TID 0000.0001) %MON exf_swflux_sd                =   1.9652762825246E+01
(PID.TID 0000.0001) %MON exf_swflux_del2              =   8.9769942849714E-02
(PID.TID 0000.0001) %MON exf_swdown_max               =   7.1228007186306E+01
(PID.TID 0000.0001) %MON exf_swdown_min               =   9.0230817351836E-02
(PID.TID 0000.0001) %MON exf_swdown_mean              =   2.9474387260081E+01
(PID.TID 0000.0001) %MON exf_swdown_sd                =   2.1836403139162E+01
(PID.TID 0000.0001) %MON exf_swdown_del2              =   9.9744380944127E-02
(PID.TID 0000.0001) %MON exf_lwdown_max               =   3.0561793543081E+02
(PID.TID 0000.0001) %MON exf_lwdown_min               =   1.1589194395764E+02
(PID.TID 0000.0001) %MON exf_lwdown_mean              =   2.2583936565568E+02
(PID.TID 0000.0001) %MON exf_lwdown_sd                =   4.6305239399294E+01
(PID.TID 0000.0001) %MON exf_lwdown_del2              =   9.0916236808001E-01
(PID.TID 0000.0001) %MON exf_climsss_max              =   3.5041624116116E+01
(PID.TID 0000.0001) %MON exf_climsss_min              =   3.0671628467372E+01
(PID.TID 0000.0001) %MON exf_climsss_mean             =   3.3462968935345E+01
(PID.TID 0000.0001) %MON exf_climsss_sd               =   1.0314580197633E+00
(PID.TID 0000.0001) %MON exf_climsss_del2             =   2.6969273072472E-02
(PID.TID 0000.0001) // =======================================================
(PID.TID 0000.0001) // End MONITOR EXF statistics
(PID.TID 0000.0001) // =======================================================
DEBUG_STATS_RL: Uice pre  iter (SEAICE_LSR  1)  min= -1.54549194525866E-02
DEBUG_STATS_RL: Uice pre  iter (SEAICE_LSR  1)  max=  2.53524286292195E-01
DEBUG_STATS_RL: Uice pre  iter (SEAICE_LSR  1) mean=  6.68799365320119E-02
DEBUG_STATS_RL: Uice pre  iter (SEAICE_LSR  1) S.D.=  7.54478852962580E-02
DEBUG_STATS_RL: Vice pre  iter (SEAICE_LSR  1)  min= -1.68373183021268E-01
DEBUG_STATS_RL: Vice pre  iter (SEAICE_LSR  1)  max=  8.10859368452303E-02
DEBUG_STATS_RL: Vice pre  iter (SEAICE_LSR  1) mean= -4.94905385200998E-02
DEBUG_STATS_RL: Vice pre  iter (SEAICE_LSR  1) S.D.=  5.89447951203408E-02
DEBUG_STATS_RL: Uice pre  iter (SEAICE_LSR  2)  min= -1.68104910559763E-02
DEBUG_STATS_RL: Uice pre  iter (SEAICE_LSR  2)  max=  2.51381266335640E-01
DEBUG_STATS_RL: Uice pre  iter (SEAICE_LSR  2) mean=  6.26056742417120E-02
DEBUG_STATS_RL: Uice pre  iter (SEAICE_LSR  2) S.D.=  7.23215228186589E-02
DEBUG_STATS_RL: Vice pre  iter (SEAICE_LSR  2)  min= -1.70146515867233E-01
DEBUG_STATS_RL: Vice pre  iter (SEAICE_LSR  2)  max=  7.01571636850258E-02
DEBUG_STATS_RL: Vice pre  iter (SEAICE_LSR  2) mean= -5.12009841743803E-02
DEBUG_STATS_RL: Vice pre  iter (SEAICE_LSR  2) S.D.=  5.84735965012139E-02
DEBUG_STATS_RL:                EtaN (DYNAMICS)  min= -1.21025777222894E-01
DEBUG_STATS_RL:                EtaN (DYNAMICS)  max=  3.30607450971643E-01
DEBUG_STATS_RL:                EtaN (DYNAMICS) mean= -3.95955825447081E-03
DEBUG_STATS_RL:                EtaN (DYNAMICS) S.D.=  6.93964235759688E-02
DEBUG_STATS_RL:                Uvel (DYNAMICS)  min= -3.57601727936033E-02
DEBUG_STATS_RL:                Uvel (DYNAMICS)  max=  1.04775938290593E-01
DEBUG_STATS_RL:                Uvel (DYNAMICS) mean=  4.39725630125182E-03
DEBUG_STATS_RL:                Uvel (DYNAMICS) S.D.=  1.39028540310335E-02
DEBUG_STATS_RL:                Vvel (DYNAMICS)  min= -1.27584762387762E-01
DEBUG_STATS_RL:                Vvel (DYNAMICS)  max=  6.50083276838834E-02
DEBUG_STATS_RL:                Vvel (DYNAMICS) mean= -3.36887217582008E-03
DEBUG_STATS_RL:                Vvel (DYNAMICS) S.D.=  1.85890275650197E-02
DEBUG_STATS_RL:                Wvel (DYNAMICS)  min= -2.67954696014334E-04
DEBUG_STATS_RL:                Wvel (DYNAMICS)  max=  3.29804232734301E-04
DEBUG_STATS_RL:                Wvel (DYNAMICS) mean= -4.85616750767614E-08
DEBUG_STATS_RL:                Wvel (DYNAMICS) S.D.=  2.84164537902804E-05
DEBUG_STATS_RL:               Theta (DYNAMICS)  min= -1.95963016104374E+00
DEBUG_STATS_RL:               Theta (DYNAMICS)  max=  1.32396343409662E+01
DEBUG_STATS_RL:               Theta (DYNAMICS) mean=  2.41506584132490E+00
DEBUG_STATS_RL:               Theta (DYNAMICS) S.D.=  2.57443936967394E+00
DEBUG_STATS_RL:                Salt (DYNAMICS)  min=  2.76338867569799E+01
DEBUG_STATS_RL:                Salt (DYNAMICS)  max=  3.54511617149686E+01
DEBUG_STATS_RL:                Salt (DYNAMICS) mean=  3.39367496241626E+01
DEBUG_STATS_RL:                Salt (DYNAMICS) S.D.=  1.15359229307638E+00
DEBUG_STATS_RL:                  Gu (DYNAMICS)  min= -5.18639383664093E-02
DEBUG_STATS_RL:                  Gu (DYNAMICS)  max=  1.08500044377568E-01
DEBUG_STATS_RL:                  Gu (DYNAMICS) mean=  2.22152146945400E-03
DEBUG_STATS_RL:                  Gu (DYNAMICS) S.D.=  1.62488741545267E-02
DEBUG_STATS_RL:                  Gv (DYNAMICS)  min= -1.40216393355448E-01
DEBUG_STATS_RL:                  Gv (DYNAMICS)  max=  4.07135165171732E-02
DEBUG_STATS_RL:                  Gv (DYNAMICS) mean= -7.84361289825861E-03
DEBUG_STATS_RL:                  Gv (DYNAMICS) S.D.=  1.86090017356288E-02
DEBUG_STATS_RL:               GuNm1 (DYNAMICS)  min= -3.48473911940034E-07
DEBUG_STATS_RL:               GuNm1 (DYNAMICS)  max=  1.90416017948021E-07
DEBUG_STATS_RL:               GuNm1 (DYNAMICS) mean= -3.12306477014106E-09
DEBUG_STATS_RL:               GuNm1 (DYNAMICS) S.D.=  4.09417632400134E-08
DEBUG_STATS_RL:               GvNm1 (DYNAMICS)  min= -2.15359173477236E-07
DEBUG_STATS_RL:               GvNm1 (DYNAMICS)  max=  1.82438063100004E-07
DEBUG_STATS_RL:               GvNm1 (DYNAMICS) mean= -6.53519601921780E-10
DEBUG_STATS_RL:               GvNm1 (DYNAMICS) S.D.=  4.16452354556348E-08
DEBUG_STATS_RL:               GtNm1 (DYNAMICS)  min=  0.00000000000000E+00
DEBUG_STATS_RL:               GtNm1 (DYNAMICS)  max=  0.00000000000000E+00
DEBUG_STATS_RL:               GtNm1 (DYNAMICS) mean=  0.00000000000000E+00
DEBUG_STATS_RL:               GtNm1 (DYNAMICS) S.D.=  0.00000000000000E+00
DEBUG_STATS_RL:               GsNm1 (DYNAMICS)  min=  0.00000000000000E+00
DEBUG_STATS_RL:               GsNm1 (DYNAMICS)  max=  0.00000000000000E+00
DEBUG_STATS_RL:               GsNm1 (DYNAMICS) mean=  0.00000000000000E+00
DEBUG_STATS_RL:               GsNm1 (DYNAMICS) S.D.=  0.00000000000000E+00
DEBUG_STATS_RL:    cg2d_b (SOLVE_FOR_PRESSURE)  min= -7.37985604508148E+03
DEBUG_STATS_RL:    cg2d_b (SOLVE_FOR_PRESSURE)  max=  2.18366607280435E+03
DEBUG_STATS_RL:    cg2d_b (SOLVE_FOR_PRESSURE) mean=  6.18645875268461E-13
DEBUG_STATS_RL:    cg2d_b (SOLVE_FOR_PRESSURE) S.D.=  8.98963545839594E+02
 cg2d: Sum(rhs),rhsMax =   1.34267597040605E-14  1.18778339080378E+00
DEBUG_STATS_RL:    cg2d_x (SOLVE_FOR_PRESSURE)  min= -1.13929441834640E+00
DEBUG_STATS_RL:    cg2d_x (SOLVE_FOR_PRESSURE)  max=  3.20616731162253E+00
DEBUG_STATS_RL:    cg2d_x (SOLVE_FOR_PRESSURE) mean= -4.15672442271453E-02
DEBUG_STATS_RL:    cg2d_x (SOLVE_FOR_PRESSURE) S.D.=  6.51074617232215E-01
(PID.TID 0000.0001)      cg2d_init_res =   6.18161684410740E-02
(PID.TID 0000.0001)      cg2d_iters(min,last) =      -1      43
(PID.TID 0000.0001)      cg2d_last_res =   8.71613878038279E-14
DEBUG_STATS_RL:          Uvel (THERMODYNAMICS)  min= -4.34802359621465E-02
DEBUG_STATS_RL:          Uvel (THERMODYNAMICS)  max=  9.99752242998808E-02
DEBUG_STATS_RL:          Uvel (THERMODYNAMICS) mean=  3.48264152589957E-03
DEBUG_STATS_RL:          Uvel (THERMODYNAMICS) S.D.=  1.35343125506116E-02
DEBUG_STATS_RL:          Vvel (THERMODYNAMICS)  min= -1.33439207289254E-01
DEBUG_STATS_RL:          Vvel (THERMODYNAMICS)  max=  5.60260700766945E-02
DEBUG_STATS_RL:          Vvel (THERMODYNAMICS) mean= -4.02696574872961E-03
DEBUG_STATS_RL:          Vvel (THERMODYNAMICS) S.D.=  1.80273334212797E-02
DEBUG_STATS_RL:          Wvel (THERMODYNAMICS)  min= -2.73348162229354E-04
DEBUG_STATS_RL:          Wvel (THERMODYNAMICS)  max=  3.13596923283671E-04
DEBUG_STATS_RL:          Wvel (THERMODYNAMICS) mean=  4.73709411313520E-08
DEBUG_STATS_RL:          Wvel (THERMODYNAMICS) S.D.=  2.82661454219204E-05
DEBUG_STATS_RL:         Theta (THERMODYNAMICS)  min= -1.95943609422387E+00
DEBUG_STATS_RL:         Theta (THERMODYNAMICS)  max=  1.32225113409295E+01
DEBUG_STATS_RL:         Theta (THERMODYNAMICS) mean=  2.41480286619418E+00
DEBUG_STATS_RL:         Theta (THERMODYNAMICS) S.D.=  2.57398860030337E+00
DEBUG_STATS_RL:          Salt (THERMODYNAMICS)  min=  2.76387468555707E+01
DEBUG_STATS_RL:          Salt (THERMODYNAMICS)  max=  3.54510358217953E+01
DEBUG_STATS_RL:          Salt (THERMODYNAMICS) mean=  3.39367601804946E+01
DEBUG_STATS_RL:          Salt (THERMODYNAMICS) S.D.=  1.15334890349729E+00
DEBUG_STATS_RL:         GtNm1 (THERMODYNAMICS)  min=  0.00000000000000E+00
DEBUG_STATS_RL:         GtNm1 (THERMODYNAMICS)  max=  0.00000000000000E+00
DEBUG_STATS_RL:         GtNm1 (THERMODYNAMICS) mean=  0.00000000000000E+00
DEBUG_STATS_RL:         GtNm1 (THERMODYNAMICS) S.D.=  0.00000000000000E+00
DEBUG_STATS_RL:         GsNm1 (THERMODYNAMICS)  min=  0.00000000000000E+00
DEBUG_STATS_RL:         GsNm1 (THERMODYNAMICS)  max=  0.00000000000000E+00
DEBUG_STATS_RL:         GsNm1 (THERMODYNAMICS) mean=  0.00000000000000E+00
DEBUG_STATS_RL:         GsNm1 (THERMODYNAMICS) S.D.=  0.00000000000000E+00
(PID.TID 0000.0001) // =======================================================
(PID.TID 0000.0001) // Begin MONITOR dynamic field statistics
(PID.TID 0000.0001) // =======================================================
(PID.TID 0000.0001) %MON time_tsnumber                =                     8
(PID.TID 0000.0001) %MON time_secondsf                =   2.8800000000000E+04
(PID.TID 0000.0001) %MON dynstat_eta_max              =   3.2663997225055E-01
(PID.TID 0000.0001) %MON dynstat_eta_min              =  -1.1606976836326E-01
(PID.TID 0000.0001) %MON dynstat_eta_mean             =   1.9648882129515E-16
(PID.TID 0000.0001) %MON dynstat_eta_sd               =   7.3468707513412E-02
(PID.TID 0000.0001) %MON dynstat_eta_del2             =   2.4242765347770E-03
(PID.TID 0000.0001) %MON dynstat_uvel_max             =   9.9975224299881E-02
(PID.TID 0000.0001) %MON dynstat_uvel_min             =  -4.3480235962146E-02
(PID.TID 0000.0001) %MON dynstat_uvel_mean            =   2.1998164318089E-04
(PID.TID 0000.0001) %MON dynstat_uvel_sd              =   8.7184185813281E-03
(PID.TID 0000.0001) %MON dynstat_uvel_del2            =   2.9538414533775E-04
(PID.TID 0000.0001) %MON dynstat_vvel_max             =   5.6026070076695E-02
(PID.TID 0000.0001) %MON dynstat_vvel_min             =  -1.3343920728925E-01
(PID.TID 0000.0001) %MON dynstat_vvel_mean            =   2.6415505420835E-05
(PID.TID 0000.0001) %MON dynstat_vvel_sd              =   7.9806175889033E-03
(PID.TID 0000.0001) %MON dynstat_vvel_del2            =   2.5895385796495E-04
(PID.TID 0000.0001) %MON dynstat_wvel_max             =   3.1359692328367E-04
(PID.TID 0000.0001) %MON dynstat_wvel_min             =  -2.7334816222935E-04
(PID.TID 0000.0001) %MON dynstat_wvel_mean            =   1.5288548264534E-21
(PID.TID 0000.0001) %MON dynstat_wvel_sd              =   5.5814570404810E-05
(PID.TID 0000.0001) %MON dynstat_wvel_del2            =   8.5784964961141E-07
(PID.TID 0000.0001) %MON dynstat_theta_max            =   1.3222511340930E+01
(PID.TID 0000.0001) %MON dynstat_theta_min            =  -1.9594360942239E+00
(PID.TID 0000.0001) %MON dynstat_theta_mean           =   3.0732211988596E+00
(PID.TID 0000.0001) %MON dynstat_theta_sd             =   1.4279377883630E+00
(PID.TID 0000.0001) %MON dynstat_theta_del2           =   9.8146971498051E-03
(PID.TID 0000.0001) %MON dynstat_salt_max             =   3.5451035821795E+01
(PID.TID 0000.0001) %MON dynstat_salt_min             =   2.7638746855571E+01
(PID.TID 0000.0001) %MON dynstat_salt_mean            =   3.4746190597079E+01
(PID.TID 0000.0001) %MON dynstat_salt_sd              =   5.1256824306849E-01
(PID.TID 0000.0001) %MON dynstat_salt_del2            =   3.6474644351642E-03
(PID.TID 0000.0001) %MON dynstat_sst_max              =   5.4984601589022E+00
(PID.TID 0000.0001) %MON dynstat_sst_min              =  -1.9594360942239E+00
(PID.TID 0000.0001) %MON dynstat_sst_mean             =  -1.2389288590455E+00
(PID.TID 0000.0001) %MON dynstat_sst_sd               =   1.4417607421619E+00
(PID.TID 0000.0001) %MON dynstat_sst_del2             =   3.0335413051162E-02
(PID.TID 0000.0001) %MON dynstat_sss_max              =   3.2704931082408E+01
(PID.TID 0000.0001) %MON dynstat_sss_min              =   2.7638746855571E+01
(PID.TID 0000.0001) %MON dynstat_sss_mean             =   3.1227532363670E+01
(PID.TID 0000.0001) %MON dynstat_sss_sd               =   1.1625034314520E+00
(PID.TID 0000.0001) %MON dynstat_sss_del2             =   2.2296357838166E-02
(PID.TID 0000.0001) %MON forcing_qnet_max             =   2.3288365285483E+02
(PID.TID 0000.0001) %MON forcing_qnet_min             =  -4.8329712536403E+01
(PID.TID 0000.0001) %MON forcing_qnet_mean            =   2.9845754066807E+01
(PID.TID 0000.0001) %MON forcing_qnet_sd              =   4.3081201012866E+01
(PID.TID 0000.0001) %MON forcing_qnet_del2            =   2.3040038112621E+00
(PID.TID 0000.0001) %MON forcing_qsw_max              =   0.0000000000000E+00
(PID.TID 0000.0001) %MON forcing_qsw_min              =  -6.4105206467675E+01
(PID.TID 0000.0001) %MON forcing_qsw_mean             =  -1.6529378312524E+01
(PID.TID 0000.0001) %MON forcing_qsw_sd               =   2.3075881780640E+01
(PID.TID 0000.0001) %MON forcing_qsw_del2             =   1.0602492914003E+00
(PID.TID 0000.0001) %MON forcing_empmr_max            =   1.5226563101010E-04
(PID.TID 0000.0001) %MON forcing_empmr_min            =  -4.1065432927198E-04
(PID.TID 0000.0001) %MON forcing_empmr_mean           =  -4.9466066003783E-05
(PID.TID 0000.0001) %MON forcing_empmr_sd             =   1.0264672039379E-04
(PID.TID 0000.0001) %MON forcing_empmr_del2           =   6.1967699872951E-06
(PID.TID 0000.0001) %MON forcing_fu_max               =   8.0497608297099E-02
(PID.TID 0000.0001) %MON forcing_fu_min               =  -5.5590269422927E-03
(PID.TID 0000.0001) %MON forcing_fu_mean              =   2.5263199176645E-02
(PID.TID 0000.0001) %MON forcing_fu_sd                =   2.2769048510865E-02
(PID.TID 0000.0001) %MON forcing_fu_del2              =   1.0752564491696E-03
(PID.TID 0000.0001) %MON forcing_fv_max               =   1.0478245023765E-02
(PID.TID 0000.0001) %MON forcing_fv_min               =  -6.1684162612721E-02
(PID.TID 0000.0001) %MON forcing_fv_mean              =  -8.7300439001377E-03
(PID.TID 0000.0001) %MON forcing_fv_sd                =   1.5338252902360E-02
(PID.TID 0000.0001) %MON forcing_fv_del2              =   6.5912692887910E-04
(PID.TID 0000.0001) %MON trAdv_CFL_u_max              =   2.4669426417421E-03
(PID.TID 0000.0001) %MON trAdv_CFL_v_max              =   2.2137084298216E-03
(PID.TID 0000.0001) %MON trAdv_CFL_w_max              =   7.9774065055788E-03
(PID.TID 0000.0001) %MON advcfl_uvel_max              =   2.4668173980326E-03
(PID.TID 0000.0001) %MON advcfl_vvel_max              =   2.1600857194541E-03
(PID.TID 0000.0001) %MON advcfl_wvel_max              =   6.7784942641195E-03
(PID.TID 0000.0001) %MON advcfl_W_hf_max              =   7.9774065055788E-03
(PID.TID 0000.0001) %MON pe_b_mean                    =   1.7794166123923E-05
(PID.TID 0000.0001) %MON ke_max                       =   8.9742773690721E-03
(PID.TID 0000.0001) %MON ke_mean                      =   5.4829276886736E-05
(PID.TID 0000.0001) %MON ke_vol                       =   5.3036189546438E+15
(PID.TID 0000.0001) %MON vort_r_min                   =  -8.7901306251739E-07
(PID.TID 0000.0001) %MON vort_r_max                   =   4.5042348904808E-07
(PID.TID 0000.0001) %MON vort_a_mean                  =   1.2067277322674E-04
(PID.TID 0000.0001) %MON vort_a_sd                    =   8.8118770058101E-06
(PID.TID 0000.0001) %MON vort_p_mean                  =   1.7734842758352E-04
(PID.TID 0000.0001) %MON vort_p_sd                    =   1.1689259720504E-04
(PID.TID 0000.0001) %MON surfExpan_theta_mean         =  -2.0637735824825E-07
(PID.TID 0000.0001) %MON surfExpan_salt_mean          =   6.0477149215455E-07
(PID.TID 0000.0001) // =======================================================
(PID.TID 0000.0001) // End MONITOR dynamic field statistics
(PID.TID 0000.0001) // =======================================================
(PID.TID 0000.0001) // =======================================================
(PID.TID 0000.0001) // Begin MONITOR SEAICE statistics
(PID.TID 0000.0001) // =======================================================
(PID.TID 0000.0001) %MON seaice_tsnumber              =                     8
(PID.TID 0000.0001) %MON seaice_time_sec              =   2.8800000000000E+04
(PID.TID 0000.0001) %MON seaice_uice_max              =   2.5669525260815E-01
(PID.TID 0000.0001) %MON seaice_uice_min              =  -1.9568720810010E-02
(PID.TID 0000.0001) %MON seaice_uice_mean             =   7.8055824084169E-02
(PID.TID 0000.0001) %MON seaice_uice_sd               =   7.4405885388946E-02
(PID.TID 0000.0001) %MON seaice_uice_del2             =   2.2570497566302E-03
(PID.TID 0000.0001) %MON seaice_vice_max              =   6.1781571986862E-02
(PID.TID 0000.0001) %MON seaice_vice_min              =  -1.7435184163999E-01
(PID.TID 0000.0001) %MON seaice_vice_mean             =  -5.6539944185696E-02
(PID.TID 0000.0001) %MON seaice_vice_sd               =   6.0418114330252E-02
(PID.TID 0000.0001) %MON seaice_vice_del2             =   2.0987461235134E-03
(PID.TID 0000.0001) %MON seaice_area_max              =   1.0000000000000E+00
(PID.TID 0000.0001) %MON seaice_area_min              =   0.0000000000000E+00
(PID.TID 0000.0001) %MON seaice_area_mean             =   6.3903710468363E-01
(PID.TID 0000.0001) %MON seaice_area_sd               =   4.7867976914476E-01
(PID.TID 0000.0001) %MON seaice_area_del2             =   3.0555733183040E-02
(PID.TID 0000.0001) %MON seaice_heff_max              =   5.7070749920978E-01
(PID.TID 0000.0001) %MON seaice_heff_min              =   0.0000000000000E+00
(PID.TID 0000.0001) %MON seaice_heff_mean             =   1.7787914010921E-01
(PID.TID 0000.0001) %MON seaice_heff_sd               =   1.8395718702089E-01
(PID.TID 0000.0001) %MON seaice_heff_del2             =   3.9846631550901E-03
(PID.TID 0000.0001) %MON seaice_hsnow_max             =   1.9986707817951E-01
(PID.TID 0000.0001) %MON seaice_hsnow_min             =   0.0000000000000E+00
(PID.TID 0000.0001) %MON seaice_hsnow_mean            =   6.3037864722351E-02
(PID.TID 0000.0001) %MON seaice_hsnow_sd              =   6.5177451988994E-02
(PID.TID 0000.0001) %MON seaice_hsnow_del2            =   1.4140215727413E-03
(PID.TID 0000.0001) %MON seaice_hsalt_max             =   5.0505991421602E+03
(PID.TID 0000.0001) %MON seaice_hsalt_min             =   0.0000000000000E+00
(PID.TID 0000.0001) %MON seaice_hsalt_mean            =   1.4626991135547E+03
(PID.TID 0000.0001) %MON seaice_hsalt_sd              =   1.5940458443266E+03
(PID.TID 0000.0001) %MON seaice_hsalt_del2            =   3.6072651147713E+01
(PID.TID 0000.0001) // =======================================================
(PID.TID 0000.0001) // End MONITOR SEAICE statistics
(PID.TID 0000.0001) // =======================================================
 Computing Diagnostic #     23  ETAN         Counter:       1   Parms: SM      M1      
(PID.TID 0000.0001)  MDS_WRITE_FIELD: it,rec,kS,kL,kH=       8    -1  46   1   1 file=diags/state_2d_set1.0000000008
 Computing Diagnostic #    294  SIarea       Counter:       1   Parms: SM      M1      
(PID.TID 0000.0001)  MDS_WRITE_FIELD: it,rec,kS,kL,kH=       8    -2  46   1   1 file=diags/state_2d_set1.0000000008
 Computing Diagnostic #    297  SIheff       Counter:       1   Parms: SM      M1      
(PID.TID 0000.0001)  MDS_WRITE_FIELD: it,rec,kS,kL,kH=       8    -3  46   1   1 file=diags/state_2d_set1.0000000008
 Computing Diagnostic #    299  SIhsnow      Counter:       1   Parms: SM      M1      
(PID.TID 0000.0001)  MDS_WRITE_FIELD: it,rec,kS,kL,kH=       8    -4  46   1   1 file=diags/state_2d_set1.0000000008
 Computing Diagnostic #     25  DETADT2      Counter:       1   Parms: SM      M1      
(PID.TID 0000.0001)  MDS_WRITE_FIELD: it,rec,kS,kL,kH=       8    -5  46   1   1 file=diags/state_2d_set1.0000000008
 Computing Diagnostic #     73  PHIBOT       Counter:       1   Parms: SM      M1      
(PID.TID 0000.0001)  MDS_WRITE_FIELD: it,rec,kS,kL,kH=       8    -6  46   1   1 file=diags/state_2d_set1.0000000008
 Computing Diagnostic #     82  sIceLoad     Counter:       1   Parms: SM      U1      
(PID.TID 0000.0001)  MDS_WRITE_FIELD: it,rec,kS,kL,kH=       8    -7  46   1   1 file=diags/state_2d_set1.0000000008
 Computing Diagnostic #     76  MXLDEPTH     Counter:       1   Parms: SM      M1      
(PID.TID 0000.0001)  MDS_WRITE_FIELD: it,rec,kS,kL,kH=       8    -8  46   1   1 file=diags/state_2d_set1.0000000008
 Computing Diagnostic #    325  SIatmFW      Counter:       1   Parms: SM      U1      
(PID.TID 0000.0001)  MDS_WRITE_FIELD: it,rec,kS,kL,kH=       8    -9  46   1   1 file=diags/state_2d_set1.0000000008
 Computing Diagnostic #     85  oceQnet      Counter:       1   Parms: SM      U1      
(PID.TID 0000.0001)  MDS_WRITE_FIELD: it,rec,kS,kL,kH=       8   -10  46   1   1 file=diags/state_2d_set1.0000000008
 Computing Diagnostic #     83  oceFWflx     Counter:       1   Parms: SM      U1      
(PID.TID 0000.0001)  MDS_WRITE_FIELD: it,rec,kS,kL,kH=       8   -11  46   1   1 file=diags/state_2d_set1.0000000008
 Computing Diagnostic #     79  oceTAUX      Counter:       1   Parms: UU      U1      
           Vector  Mate for  oceTAUX      Diagnostic #     80  oceTAUY  exists 
(PID.TID 0000.0001)  MDS_WRITE_FIELD: it,rec,kS,kL,kH=       8   -12  46   1   1 file=diags/state_2d_set1.0000000008
 Computing Diagnostic #     80  oceTAUY      Counter:       1   Parms: VV      U1      
           Vector  Mate for  oceTAUY      Diagnostic #     79  oceTAUX  exists 
(PID.TID 0000.0001)  MDS_WRITE_FIELD: it,rec,kS,kL,kH=       8   -13  46   1   1 file=diags/state_2d_set1.0000000008
 Computing Diagnostic #    311  SIuice       Counter:       1   Parms: UU      M1      
           Vector  Mate for  SIuice       Diagnostic #    312  SIvice   exists 
(PID.TID 0000.0001)  MDS_WRITE_FIELD: it,rec,kS,kL,kH=       8   -14  46   1   1 file=diags/state_2d_set1.0000000008
 Computing Diagnostic #    312  SIvice       Counter:       1   Parms: VV      M1      
           Vector  Mate for  SIvice       Diagnostic #    311  SIuice   exists 
(PID.TID 0000.0001)  MDS_WRITE_FIELD: it,rec,kS,kL,kH=       8   -15  46   1   1 file=diags/state_2d_set1.0000000008
 Computing Diagnostic #     24  ETANSQ       Counter:       1   Parms: SM P    M1      
(PID.TID 0000.0001)  MDS_WRITE_FIELD: it,rec,kS,kL,kH=       8   -16  46   1   1 file=diags/state_2d_set1.0000000008
 Computing Diagnostic #     26  THETA        Counter:       1   Parms: SMR     MR      
(PID.TID 0000.0001)  MDS_WRITE_FIELD: it,rec,kS,kL,kH=       8    -1  46   1  23 file=diags/state_3d_set1.0000000008
 Computing Diagnostic #     27  SALT         Counter:       1   Parms: SMR     MR      
(PID.TID 0000.0001)  MDS_WRITE_FIELD: it,rec,kS,kL,kH=       8    -2  46   1  23 file=diags/state_3d_set1.0000000008
 Computing Diagnostic #     45  UVELMASS     Counter:       1   Parms: UUr     MR      
           Vector  Mate for  UVELMASS     Diagnostic #     46  VVELMASS exists 
(PID.TID 0000.0001)  MDS_WRITE_FIELD: it,rec,kS,kL,kH=       8    -1  46   1  23 file=diags/trsp_3d_set1.0000000008
 Computing Diagnostic #     46  VVELMASS     Counter:       1   Parms: VVr     MR      
           Vector  Mate for  VVELMASS     Diagnostic #     45  UVELMASS exists 
(PID.TID 0000.0001)  MDS_WRITE_FIELD: it,rec,kS,kL,kH=       8    -2  46   1  23 file=diags/trsp_3d_set1.0000000008
 Computing Diagnostic #    224  EXFpreci     Counter:       1   Parms: SM      U1      
(PID.TID 0000.0001)  MDS_WRITE_FIELD: it,rec,kS,kL,kH=       8    -1  46   1   1 file=diags/exf_zflux_set1.0000000008
 Computing Diagnostic #    223  EXFevap      Counter:       1   Parms: SM      U1      
(PID.TID 0000.0001)  MDS_WRITE_FIELD: it,rec,kS,kL,kH=       8    -2  46   1   1 file=diags/exf_zflux_set1.0000000008
 Computing Diagnostic #    228  EXFroff      Counter:       1   Parms: SM      U1      
(PID.TID 0000.0001)  MDS_WRITE_FIELD: it,rec,kS,kL,kH=       8    -3  46   1   1 file=diags/exf_zflux_set1.0000000008
 Computing Diagnostic #    226  EXFempmr     Counter:       1   Parms: SM      U1      
(PID.TID 0000.0001)  MDS_WRITE_FIELD: it,rec,kS,kL,kH=       8    -4  46   1   1 file=diags/exf_zflux_set1.0000000008
 Computing Diagnostic #    212  EXFswdn      Counter:       1   Parms: SM      U1      
(PID.TID 0000.0001)  MDS_WRITE_FIELD: it,rec,kS,kL,kH=       8    -5  46   1   1 file=diags/exf_zflux_set1.0000000008
 Computing Diagnostic #    211  EXFlwdn      Counter:       1   Parms: SM      U1      
(PID.TID 0000.0001)  MDS_WRITE_FIELD: it,rec,kS,kL,kH=       8    -6  46   1   1 file=diags/exf_zflux_set1.0000000008
 Computing Diagnostic #    210  EXFswnet     Counter:       1   Parms: SM      U1      
(PID.TID 0000.0001)  MDS_WRITE_FIELD: it,rec,kS,kL,kH=       8    -7  46   1   1 file=diags/exf_zflux_set1.0000000008
 Computing Diagnostic #    209  EXFlwnet     Counter:       1   Parms: SM      U1      
(PID.TID 0000.0001)  MDS_WRITE_FIELD: it,rec,kS,kL,kH=       8    -8  46   1   1 file=diags/exf_zflux_set1.0000000008
 Computing Diagnostic #    213  EXFqnet      Counter:       1   Parms: SM      U1      
(PID.TID 0000.0001)  MDS_WRITE_FIELD: it,rec,kS,kL,kH=       8    -9  46   1   1 file=diags/exf_zflux_set1.0000000008
 Computing Diagnostic #    221  EXFatemp     Counter:       1   Parms: SM      U1      
(PID.TID 0000.0001)  MDS_WRITE_FIELD: it,rec,kS,kL,kH=       8   -10  46   1   1 file=diags/exf_zflux_set1.0000000008
 Computing Diagnostic #    222  EXFaqh       Counter:       1   Parms: SM      U1      
(PID.TID 0000.0001)  MDS_WRITE_FIELD: it,rec,kS,kL,kH=       8   -11  46   1   1 file=diags/exf_zflux_set1.0000000008
 Computing Diagnostic #    214  EXFtaux      Counter:       1   Parms: UM      U1      
(PID.TID 0000.0001)  MDS_WRITE_FIELD: it,rec,kS,kL,kH=       8   -12  46   1   1 file=diags/exf_zflux_set1.0000000008
 Computing Diagnostic #    215  EXFtauy      Counter:       1   Parms: VM      U1      
(PID.TID 0000.0001)  MDS_WRITE_FIELD: it,rec,kS,kL,kH=       8   -13  46   1   1 file=diags/exf_zflux_set1.0000000008
 Computing Diagnostic #    216  EXFuwind     Counter:       1   Parms: UM      U1      
(PID.TID 0000.0001)  MDS_WRITE_FIELD: it,rec,kS,kL,kH=       8   -14  46   1   1 file=diags/exf_zflux_set1.0000000008
 Computing Diagnostic #    217  EXFvwind     Counter:       1   Parms: VM      U1      
(PID.TID 0000.0001)  MDS_WRITE_FIELD: it,rec,kS,kL,kH=       8   -15  46   1   1 file=diags/exf_zflux_set1.0000000008
 Computing Diagnostic #    227  EXFpress     Counter:       1   Parms: SM      U1      
(PID.TID 0000.0001)  MDS_WRITE_FIELD: it,rec,kS,kL,kH=       8   -16  46   1   1 file=diags/exf_zflux_set1.0000000008
 Computing Diagnostic #    207  EXFhs        Counter:       1   Parms: SM      U1      
(PID.TID 0000.0001)  MDS_WRITE_FIELD: it,rec,kS,kL,kH=       8   -17  46   1   1 file=diags/exf_zflux_set1.0000000008
 Computing Diagnostic #    208  EXFhl        Counter:       1   Parms: SM      U1      
(PID.TID 0000.0001)  MDS_WRITE_FIELD: it,rec,kS,kL,kH=       8   -18  46   1   1 file=diags/exf_zflux_set1.0000000008
(PID.TID 0000.0001)  write diagnostics summary to file: diagnostics_status.0000000008.txt
(PID.TID 0000.0001)  MDS_WRITE_FIELD: it,rec,kS,kL,kH=       8     1  23   1  23 file=pickup_cd.0000000008
(PID.TID 0000.0001)  MDS_WRITE_FIELD: it,rec,kS,kL,kH=       8     2  23   1  23 file=pickup_cd.0000000008
(PID.TID 0000.0001)  MDS_WRITE_FIELD: it,rec,kS,kL,kH=       8     3  23   1  23 file=pickup_cd.0000000008
(PID.TID 0000.0001)  MDS_WRITE_FIELD: it,rec,kS,kL,kH=       8     4  23   1  23 file=pickup_cd.0000000008
(PID.TID 0000.0001)  MDS_WRITE_FIELD: it,rec,kS,kL,kH=       8    93   1   1   1 file=pickup_cd.0000000008
(PID.TID 0000.0001)  MDS_WRITE_FIELD: it,rec,kS,kL,kH=       8    -1   7   1   7 file=pickup_seaice.0000000008
(PID.TID 0000.0001)  MDS_WRITE_FIELD: it,rec,kS,kL,kH=       8    -8   1   1   1 file=pickup_seaice.0000000008
(PID.TID 0000.0001)  MDS_WRITE_FIELD: it,rec,kS,kL,kH=       8    -9   1   1   1 file=pickup_seaice.0000000008
(PID.TID 0000.0001)  MDS_WRITE_FIELD: it,rec,kS,kL,kH=       8   -10   1   1   1 file=pickup_seaice.0000000008
(PID.TID 0000.0001)  MDS_WRITE_FIELD: it,rec,kS,kL,kH=       8   -11   1   1   1 file=pickup_seaice.0000000008
(PID.TID 0000.0001)  MDS_WRITE_FIELD: it,rec,kS,kL,kH=       8   -12   1   1   1 file=pickup_seaice.0000000008
(PID.TID 0000.0001)  MDS_WRITE_FIELD: it,rec,kS,kL,kH=       8   -13   1   1   1 file=pickup_seaice.0000000008
(PID.TID 0000.0001)  MDS_WRITE_FIELD: it,rec,kS,kL,kH=       8    -1  23   1  23 file=pickup.0000000008
(PID.TID 0000.0001)  MDS_WRITE_FIELD: it,rec,kS,kL,kH=       8    -2  23   1  23 file=pickup.0000000008
(PID.TID 0000.0001)  MDS_WRITE_FIELD: it,rec,kS,kL,kH=       8    -3  23   1  23 file=pickup.0000000008
(PID.TID 0000.0001)  MDS_WRITE_FIELD: it,rec,kS,kL,kH=       8    -4  23   1  23 file=pickup.0000000008
(PID.TID 0000.0001)  MDS_WRITE_FIELD: it,rec,kS,kL,kH=       8    -5  23   1  23 file=pickup.0000000008
(PID.TID 0000.0001)  MDS_WRITE_FIELD: it,rec,kS,kL,kH=       8    -6  23   1  23 file=pickup.0000000008
(PID.TID 0000.0001)  MDS_WRITE_FIELD: it,rec,kS,kL,kH=       8  -139   1   1   1 file=pickup.0000000008
(PID.TID 0000.0001)  MDS_WRITE_FIELD: it,rec,kS,kL,kH=       8  -140   1   1   1 file=pickup.0000000008
(PID.TID 0000.0001)  MDS_WRITE_FIELD: it,rec,kS,kL,kH=       8  -141   1   1   1 file=pickup.0000000008
(PID.TID 0000.0001) %CHECKPOINT         8 0000000008
(PID.TID 0000.0001)  MDS_WRITE_FIELD: it,rec,kS,kL,kH=       1     4   1   1   1 file=m_sst_step.0000000001
(PID.TID 0000.0001)  MDS_READ_FIELD: opening global file: xx_atemp.effective.0000000001.data
(PID.TID 0000.0001) EXF_SET_FLD: processing field "climsss",  file: SSS_monthly.labsea1979
(PID.TID 0000.0001) EXF_SET_FLD:   myIter, count0, count1:         8      1      2
(PID.TID 0000.0001) EXF_SET_FLD:   first, changed, fac:   F   F    0.48907103825136611
(PID.TID 0000.0001) EXF_SET_FLD: processing field "uwind",  file: u10m.labsea1979
(PID.TID 0000.0001) EXF_SET_FLD:   myIter, count0, count1:         8      1      2
(PID.TID 0000.0001) EXF_SET_FLD:   first, changed, fac:   F   F    0.48907103825136611
(PID.TID 0000.0001) EXF_SET_FLD: processing field "vwind",  file: v10m.labsea1979
(PID.TID 0000.0001) EXF_SET_FLD:   myIter, count0, count1:         8      1      2
(PID.TID 0000.0001) EXF_SET_FLD:   first, changed, fac:   F   F    0.48907103825136611
(PID.TID 0000.0001) EXF_SET_FLD: processing field "atemp",  file: tair.labsea1979
(PID.TID 0000.0001) EXF_SET_FLD:   myIter, count0, count1:         8      1      2
(PID.TID 0000.0001) EXF_SET_FLD:   first, changed, fac:   F   F    0.48907103825136611
(PID.TID 0000.0001) EXF_SET_FLD: processing field "aqh",  file: qa.labsea1979
(PID.TID 0000.0001) EXF_SET_FLD:   myIter, count0, count1:         8      1      2
(PID.TID 0000.0001) EXF_SET_FLD:   first, changed, fac:   F   F    0.48907103825136611
(PID.TID 0000.0001) EXF_SET_FLD: processing field "precip",  file: prate.labsea1979
(PID.TID 0000.0001) EXF_SET_FLD:   myIter, count0, count1:         8      1      2
(PID.TID 0000.0001) EXF_SET_FLD:   first, changed, fac:   F   F    0.48907103825136611
(PID.TID 0000.0001) EXF_SET_FLD: processing field "swdown",  file: fsh.labsea1979
(PID.TID 0000.0001) EXF_SET_FLD:   myIter, count0, count1:         8      1      2
(PID.TID 0000.0001) EXF_SET_FLD:   first, changed, fac:   F   F    0.48907103825136611
(PID.TID 0000.0001) EXF_SET_FLD: processing field "lwdown",  file: flo.labsea1979
(PID.TID 0000.0001) EXF_SET_FLD:   myIter, count0, count1:         8      1      2
(PID.TID 0000.0001) EXF_SET_FLD:   first, changed, fac:   F   F    0.48907103825136611
(PID.TID 0000.0001) // =======================================================
(PID.TID 0000.0001) // Begin MONITOR EXF statistics
(PID.TID 0000.0001) // =======================================================
(PID.TID 0000.0001) %MON exf_tsnumber                 =                     8
(PID.TID 0000.0001) %MON exf_time_sec                 =   2.8800000000000E+04
(PID.TID 0000.0001) %MON exf_ustress_max              =   5.1949622251800E-02
(PID.TID 0000.0001) %MON exf_ustress_min              =  -9.3533727559812E-02
(PID.TID 0000.0001) %MON exf_ustress_mean             =   1.7286219703216E-02
(PID.TID 0000.0001) %MON exf_ustress_sd               =   2.3294037561290E-02
(PID.TID 0000.0001) %MON exf_ustress_del2             =   7.1260897183348E-04
(PID.TID 0000.0001) %MON exf_vstress_max              =   5.3683052245317E-02
(PID.TID 0000.0001) %MON exf_vstress_min              =  -5.8107751612079E-02
(PID.TID 0000.0001) %MON exf_vstress_mean             =  -5.3826550331846E-03
(PID.TID 0000.0001) %MON exf_vstress_sd               =   1.4271315488694E-02
(PID.TID 0000.0001) %MON exf_vstress_del2             =   5.1859849182861E-04
(PID.TID 0000.0001) %MON exf_hflux_max                =   6.2046688379819E+02
(PID.TID 0000.0001) %MON exf_hflux_min                =  -4.8459507808829E+01
(PID.TID 0000.0001) %MON exf_hflux_mean               =   1.4849864468574E+02
(PID.TID 0000.0001) %MON exf_hflux_sd                 =   1.7824970328101E+02
(PID.TID 0000.0001) %MON exf_hflux_del2               =   5.2637873731862E+00
(PID.TID 0000.0001) %MON exf_sflux_max                =   4.0134251473299E-08
(PID.TID 0000.0001) %MON exf_sflux_min                =  -8.8510695637131E-08
(PID.TID 0000.0001) %MON exf_sflux_mean               =  -2.5898707821704E-08
(PID.TID 0000.0001) %MON exf_sflux_sd                 =   3.0744488822009E-08
(PID.TID 0000.0001) %MON exf_sflux_del2               =   9.5892353450929E-10
(PID.TID 0000.0001) %MON exf_uwind_max                =   6.4684341618272E+00
(PID.TID 0000.0001) %MON exf_uwind_min                =  -6.8374523269674E+00
(PID.TID 0000.0001) %MON exf_uwind_mean               =   2.7706331523584E+00
(PID.TID 0000.0001) %MON exf_uwind_sd                 =   2.9922491036980E+00
(PID.TID 0000.0001) %MON exf_uwind_del2               =   8.0271435604014E-02
(PID.TID 0000.0001) %MON exf_vwind_max                =   3.9243096588739E+00
(PID.TID 0000.0001) %MON exf_vwind_min                =  -6.0124561096150E+00
(PID.TID 0000.0001) %MON exf_vwind_mean               =  -7.5595649652871E-01
(PID.TID 0000.0001) %MON exf_vwind_sd                 =   1.7302112611019E+00
(PID.TID 0000.0001) %MON exf_vwind_del2               =   4.8613928316913E-02
(PID.TID 0000.0001) %MON exf_wspeed_max               =   7.8835880550853E+00
(PID.TID 0000.0001) %MON exf_wspeed_min               =   4.5840953253040E-01
(PID.TID 0000.0001) %MON exf_wspeed_mean              =   4.1989448725728E+00
(PID.TID 0000.0001) %MON exf_wspeed_sd                =   1.6012263903992E+00
(PID.TID 0000.0001) %MON exf_wspeed_del2              =   1.3310013526230E-01
(PID.TID 0000.0001) %MON exf_atemp_max                =   2.8236911527707E+02
(PID.TID 0000.0001) %MON exf_atemp_min                =   2.3692604936277E+02
(PID.TID 0000.0001) %MON exf_atemp_mean               =   2.6440890515856E+02
(PID.TID 0000.0001) %MON exf_atemp_sd                 =   1.1995115599497E+01
(PID.TID 0000.0001) %MON exf_atemp_del2               =   1.6505564798724E-01
(PID.TID 0000.0001) %MON exf_aqh_max                  =   6.3176006167781E-03
(PID.TID 0000.0001) %MON exf_aqh_min                  =   1.6293992018683E-04
(PID.TID 0000.0001) %MON exf_aqh_mean                 =   2.4758800589519E-03
(PID.TID 0000.0001) %MON exf_aqh_sd                   =   1.4256836550895E-03
(PID.TID 0000.0001) %MON exf_aqh_del2                 =   1.7531923878911E-05
(PID.TID 0000.0001) %MON exf_lwflux_max               =   1.8508510275675E+02
(PID.TID 0000.0001) %MON exf_lwflux_min               =   3.4538344381050E+01
(PID.TID 0000.0001) %MON exf_lwflux_mean              =   8.1654499915116E+01
(PID.TID 0000.0001) %MON exf_lwflux_sd                =   4.1713242321202E+01
(PID.TID 0000.0001) %MON exf_lwflux_del2              =   8.9588167134057E-01
(PID.TID 0000.0001) %MON exf_evap_max                 =   4.6453157609949E-08
(PID.TID 0000.0001) %MON exf_evap_min                 =  -5.1180372506519E-09
(PID.TID 0000.0001) %MON exf_evap_mean                =   1.0491285969107E-08
(PID.TID 0000.0001) %MON exf_evap_sd                  =   1.1492544098320E-08
(PID.TID 0000.0001) %MON exf_evap_del2                =   4.5193124058367E-10
(PID.TID 0000.0001) %MON exf_precip_max               =   1.0499871454869E-07
(PID.TID 0000.0001) %MON exf_precip_min               =   2.7252357516229E-10
(PID.TID 0000.0001) %MON exf_precip_mean              =   3.6389993790810E-08
(PID.TID 0000.0001) %MON exf_precip_sd                =   2.0581769987393E-08
(PID.TID 0000.0001) %MON exf_precip_del2              =   8.1132759546383E-10
(PID.TID 0000.0001) %MON exf_swflux_max               =  -8.1208018494434E-02
(PID.TID 0000.0001) %MON exf_swflux_min               =  -6.4124076818247E+01
(PID.TID 0000.0001) %MON exf_swflux_mean              =  -2.6537480749947E+01
(PID.TID 0000.0001) %MON exf_swflux_sd                =   1.9656602581253E+01
(PID.TID 0000.0001) %MON exf_swflux_del2              =   8.9798833662667E-02
(PID.TID 0000.0001) %MON exf_swdown_max               =   7.1248974242497E+01
(PID.TID 0000.0001) %MON exf_swdown_min               =   9.0231131660482E-02
(PID.TID 0000.0001) %MON exf_swdown_mean              =   2.9486089722164E+01
(PID.TID 0000.0001) %MON exf_swdown_sd                =   2.1840669534725E+01
(PID.TID 0000.0001) %MON exf_swdown_del2              =   9.9776481847408E-02
(PID.TID 0000.0001) %MON exf_lwdown_max               =   3.0560910934698E+02
(PID.TID 0000.0001) %MON exf_lwdown_min               =   1.1587683707899E+02
(PID.TID 0000.0001) %MON exf_lwdown_mean              =   2.2582365832661E+02
(PID.TID 0000.0001) %MON exf_lwdown_sd                =   4.6309216947189E+01
(PID.TID 0000.0001) %MON exf_lwdown_del2              =   9.0921058176775E-01
(PID.TID 0000.0001) %MON exf_climsss_max              =   3.5041808863155E+01
(PID.TID 0000.0001) %MON exf_climsss_min              =   3.0672387795370E+01
(PID.TID 0000.0001) %MON exf_climsss_mean             =   3.3463490268825E+01
(PID.TID 0000.0001) %MON exf_climsss_sd               =   1.0313879583737E+00
(PID.TID 0000.0001) %MON exf_climsss_del2             =   2.6968424438251E-02
(PID.TID 0000.0001) // =======================================================
(PID.TID 0000.0001) // End MONITOR EXF statistics
(PID.TID 0000.0001) // =======================================================
DEBUG_STATS_RL: Uice pre  iter (SEAICE_LSR  1)  min= -1.95687208100102E-02
DEBUG_STATS_RL: Uice pre  iter (SEAICE_LSR  1)  max=  2.56695252608154E-01
DEBUG_STATS_RL: Uice pre  iter (SEAICE_LSR  1) mean=  6.10102626008752E-02
DEBUG_STATS_RL: Uice pre  iter (SEAICE_LSR  1) S.D.=  7.26515133443026E-02
DEBUG_STATS_RL: Vice pre  iter (SEAICE_LSR  1)  min= -1.74351841639993E-01
DEBUG_STATS_RL: Vice pre  iter (SEAICE_LSR  1)  max=  6.17815719868620E-02
DEBUG_STATS_RL: Vice pre  iter (SEAICE_LSR  1) mean= -5.34332922103127E-02
DEBUG_STATS_RL: Vice pre  iter (SEAICE_LSR  1) S.D.=  5.91879685811095E-02
DEBUG_STATS_RL: Uice pre  iter (SEAICE_LSR  2)  min= -2.10631196463131E-02
DEBUG_STATS_RL: Uice pre  iter (SEAICE_LSR  2)  max=  2.47741110498678E-01
DEBUG_STATS_RL: Uice pre  iter (SEAICE_LSR  2) mean=  5.58563099525574E-02
DEBUG_STATS_RL: Uice pre  iter (SEAICE_LSR  2) S.D.=  6.83562873807025E-02
DEBUG_STATS_RL: Vice pre  iter (SEAICE_LSR  2)  min= -1.71270231909308E-01
DEBUG_STATS_RL: Vice pre  iter (SEAICE_LSR  2)  max=  5.00408736690829E-02
DEBUG_STATS_RL: Vice pre  iter (SEAICE_LSR  2) mean= -5.35471708937630E-02
DEBUG_STATS_RL: Vice pre  iter (SEAICE_LSR  2) S.D.=  5.75117440524867E-02
DEBUG_STATS_RL:                EtaN (DYNAMICS)  min= -1.16069768363258E-01
DEBUG_STATS_RL:                EtaN (DYNAMICS)  max=  3.26639972250553E-01
DEBUG_STATS_RL:                EtaN (DYNAMICS) mean= -4.23481440025525E-03
DEBUG_STATS_RL:                EtaN (DYNAMICS) S.D.=  6.63305979494085E-02
DEBUG_STATS_RL:                Uvel (DYNAMICS)  min= -4.34802359621465E-02
DEBUG_STATS_RL:                Uvel (DYNAMICS)  max=  9.99752242998808E-02
DEBUG_STATS_RL:                Uvel (DYNAMICS) mean=  3.48264152589957E-03
DEBUG_STATS_RL:                Uvel (DYNAMICS) S.D.=  1.35343125506116E-02
DEBUG_STATS_RL:                Vvel (DYNAMICS)  min= -1.33439207289254E-01
DEBUG_STATS_RL:                Vvel (DYNAMICS)  max=  5.60260700766945E-02
DEBUG_STATS_RL:                Vvel (DYNAMICS) mean= -4.02696574872961E-03
DEBUG_STATS_RL:                Vvel (DYNAMICS) S.D.=  1.80273334212797E-02
DEBUG_STATS_RL:                Wvel (DYNAMICS)  min= -2.73348162229354E-04
DEBUG_STATS_RL:                Wvel (DYNAMICS)  max=  3.13596923283671E-04
DEBUG_STATS_RL:                Wvel (DYNAMICS) mean=  4.73709411313520E-08
DEBUG_STATS_RL:                Wvel (DYNAMICS) S.D.=  2.82661454219204E-05
DEBUG_STATS_RL:               Theta (DYNAMICS)  min= -1.95943609422387E+00
DEBUG_STATS_RL:               Theta (DYNAMICS)  max=  1.32225113409295E+01
DEBUG_STATS_RL:               Theta (DYNAMICS) mean=  2.41480286619418E+00
DEBUG_STATS_RL:               Theta (DYNAMICS) S.D.=  2.57398860030337E+00
DEBUG_STATS_RL:                Salt (DYNAMICS)  min=  2.76387468555707E+01
DEBUG_STATS_RL:                Salt (DYNAMICS)  max=  3.54510358217953E+01
DEBUG_STATS_RL:                Salt (DYNAMICS) mean=  3.39367601804946E+01
DEBUG_STATS_RL:                Salt (DYNAMICS) S.D.=  1.15334890349729E+00
DEBUG_STATS_RL:                  Gu (DYNAMICS)  min= -5.98368153074020E-02
DEBUG_STATS_RL:                  Gu (DYNAMICS)  max=  9.68873121299251E-02
DEBUG_STATS_RL:                  Gu (DYNAMICS) mean=  1.30194972947503E-03
DEBUG_STATS_RL:                  Gu (DYNAMICS) S.D.=  1.61566615235326E-02
DEBUG_STATS_RL:                  Gv (DYNAMICS)  min= -1.36271217267994E-01
DEBUG_STATS_RL:                  Gv (DYNAMICS)  max=  3.83573237348583E-02
DEBUG_STATS_RL:                  Gv (DYNAMICS) mean= -7.71950831958569E-03
DEBUG_STATS_RL:                  Gv (DYNAMICS) S.D.=  1.77533563667874E-02
DEBUG_STATS_RL:               GuNm1 (DYNAMICS)  min= -3.40955168137046E-07
DEBUG_STATS_RL:               GuNm1 (DYNAMICS)  max=  1.82641400821284E-07
DEBUG_STATS_RL:               GuNm1 (DYNAMICS) mean= -2.79196714442664E-09
DEBUG_STATS_RL:               GuNm1 (DYNAMICS) S.D.=  4.07453533304239E-08
DEBUG_STATS_RL:               GvNm1 (DYNAMICS)  min= -2.14559263714299E-07
DEBUG_STATS_RL:               GvNm1 (DYNAMICS)  max=  1.94148824775153E-07
DEBUG_STATS_RL:               GvNm1 (DYNAMICS) mean= -4.04169206802268E-10
DEBUG_STATS_RL:               GvNm1 (DYNAMICS) S.D.=  4.19222729579498E-08
DEBUG_STATS_RL:               GtNm1 (DYNAMICS)  min=  0.00000000000000E+00
DEBUG_STATS_RL:               GtNm1 (DYNAMICS)  max=  0.00000000000000E+00
DEBUG_STATS_RL:               GtNm1 (DYNAMICS) mean=  0.00000000000000E+00
DEBUG_STATS_RL:               GtNm1 (DYNAMICS) S.D.=  0.00000000000000E+00
DEBUG_STATS_RL:               GsNm1 (DYNAMICS)  min=  0.00000000000000E+00
DEBUG_STATS_RL:               GsNm1 (DYNAMICS)  max=  0.00000000000000E+00
DEBUG_STATS_RL:               GsNm1 (DYNAMICS) mean=  0.00000000000000E+00
DEBUG_STATS_RL:               GsNm1 (DYNAMICS) S.D.=  0.00000000000000E+00
DEBUG_STATS_RL:    cg2d_b (SOLVE_FOR_PRESSURE)  min= -7.29975929937793E+03
DEBUG_STATS_RL:    cg2d_b (SOLVE_FOR_PRESSURE)  max=  2.19478299507054E+03
DEBUG_STATS_RL:    cg2d_b (SOLVE_FOR_PRESSURE) mean= -3.96767063648440E-13
DEBUG_STATS_RL:    cg2d_b (SOLVE_FOR_PRESSURE) S.D.=  8.94146290227710E+02
 cg2d: Sum(rhs),rhsMax =  -6.92501611609941E-15  1.17489186776824E+00
DEBUG_STATS_RL:    cg2d_x (SOLVE_FOR_PRESSURE)  min= -1.08771127617308E+00
DEBUG_STATS_RL:    cg2d_x (SOLVE_FOR_PRESSURE)  max=  3.12128519797376E+00
DEBUG_STATS_RL:    cg2d_x (SOLVE_FOR_PRESSURE) mean= -4.19588396852395E-02
DEBUG_STATS_RL:    cg2d_x (SOLVE_FOR_PRESSURE) S.D.=  6.20262122262901E-01
(PID.TID 0000.0001)      cg2d_init_res =   5.82874136986767E-02
(PID.TID 0000.0001)      cg2d_iters(min,last) =      -1      43
(PID.TID 0000.0001)      cg2d_last_res =   4.65106505919221E-14
DEBUG_STATS_RL:          Uvel (THERMODYNAMICS)  min= -5.12375198242059E-02
DEBUG_STATS_RL:          Uvel (THERMODYNAMICS)  max=  8.84896388076339E-02
DEBUG_STATS_RL:          Uvel (THERMODYNAMICS) mean=  2.55769138538291E-03
DEBUG_STATS_RL:          Uvel (THERMODYNAMICS) S.D.=  1.29064693910456E-02
DEBUG_STATS_RL:          Vvel (THERMODYNAMICS)  min= -1.29344604199479E-01
DEBUG_STATS_RL:          Vvel (THERMODYNAMICS)  max=  4.58633296186249E-02
DEBUG_STATS_RL:          Vvel (THERMODYNAMICS) mean= -4.14107843006319E-03
DEBUG_STATS_RL:          Vvel (THERMODYNAMICS) S.D.=  1.66082836245794E-02
DEBUG_STATS_RL:          Wvel (THERMODYNAMICS)  min= -2.60848991809587E-04
DEBUG_STATS_RL:          Wvel (THERMODYNAMICS)  max=  2.85731299794369E-04
DEBUG_STATS_RL:          Wvel (THERMODYNAMICS) mean=  1.36793666178293E-07
DEBUG_STATS_RL:          Wvel (THERMODYNAMICS) S.D.=  2.70580054557619E-05
DEBUG_STATS_RL:         Theta (THERMODYNAMICS)  min= -1.95932886747261E+00
DEBUG_STATS_RL:         Theta (THERMODYNAMICS)  max=  1.32010303660582E+01
DEBUG_STATS_RL:         Theta (THERMODYNAMICS) mean=  2.41452315045422E+00
DEBUG_STATS_RL:         Theta (THERMODYNAMICS) S.D.=  2.57350774067654E+00
DEBUG_STATS_RL:          Salt (THERMODYNAMICS)  min=  2.76435505129419E+01
DEBUG_STATS_RL:          Salt (THERMODYNAMICS)  max=  3.54508660670958E+01
DEBUG_STATS_RL:          Salt (THERMODYNAMICS) mean=  3.39367749828872E+01
DEBUG_STATS_RL:          Salt (THERMODYNAMICS) S.D.=  1.15309738582237E+00
DEBUG_STATS_RL:         GtNm1 (THERMODYNAMICS)  min=  0.00000000000000E+00
DEBUG_STATS_RL:         GtNm1 (THERMODYNAMICS)  max=  0.00000000000000E+00
DEBUG_STATS_RL:         GtNm1 (THERMODYNAMICS) mean=  0.00000000000000E+00
DEBUG_STATS_RL:         GtNm1 (THERMODYNAMICS) S.D.=  0.00000000000000E+00
DEBUG_STATS_RL:         GsNm1 (THERMODYNAMICS)  min=  0.00000000000000E+00
DEBUG_STATS_RL:         GsNm1 (THERMODYNAMICS)  max=  0.00000000000000E+00
DEBUG_STATS_RL:         GsNm1 (THERMODYNAMICS) mean=  0.00000000000000E+00
DEBUG_STATS_RL:         GsNm1 (THERMODYNAMICS) S.D.=  0.00000000000000E+00
(PID.TID 0000.0001) // =======================================================
(PID.TID 0000.0001) // Begin MONITOR dynamic field statistics
(PID.TID 0000.0001) // =======================================================
(PID.TID 0000.0001) %MON time_tsnumber                =                     9
(PID.TID 0000.0001) %MON time_secondsf                =   3.2400000000000E+04
(PID.TID 0000.0001) %MON dynstat_eta_max              =   3.1799229776822E-01
(PID.TID 0000.0001) %MON dynstat_eta_min              =  -1.1081454788022E-01
(PID.TID 0000.0001) %MON dynstat_eta_mean             =   3.6086751436910E-16
(PID.TID 0000.0001) %MON dynstat_eta_sd               =   7.0034867585130E-02
(PID.TID 0000.0001) %MON dynstat_eta_del2             =   2.4903422988240E-03
(PID.TID 0000.0001) %MON dynstat_uvel_max             =   8.8489638807634E-02
(PID.TID 0000.0001) %MON dynstat_uvel_min             =  -5.1237519824206E-02
(PID.TID 0000.0001) %MON dynstat_uvel_mean            =   3.9570581337115E-05
(PID.TID 0000.0001) %MON dynstat_uvel_sd              =   8.4067450913468E-03
(PID.TID 0000.0001) %MON dynstat_uvel_del2            =   2.6760488162070E-04
(PID.TID 0000.0001) %MON dynstat_vvel_max             =   4.5863329618625E-02
(PID.TID 0000.0001) %MON dynstat_vvel_min             =  -1.2934460419948E-01
(PID.TID 0000.0001) %MON dynstat_vvel_mean            =   2.3610339510277E-04
(PID.TID 0000.0001) %MON dynstat_vvel_sd              =   7.0897321724133E-03
(PID.TID 0000.0001) %MON dynstat_vvel_del2            =   2.6048091158772E-04
(PID.TID 0000.0001) %MON dynstat_wvel_max             =   2.8573129979437E-04
(PID.TID 0000.0001) %MON dynstat_wvel_min             =  -2.6084899180959E-04
(PID.TID 0000.0001) %MON dynstat_wvel_mean            =   2.8731194515820E-22
(PID.TID 0000.0001) %MON dynstat_wvel_sd              =   5.3333907461664E-05
(PID.TID 0000.0001) %MON dynstat_wvel_del2            =   8.1039552157179E-07
(PID.TID 0000.0001) %MON dynstat_theta_max            =   1.3201030366058E+01
(PID.TID 0000.0001) %MON dynstat_theta_min            =  -1.9593288674726E+00
(PID.TID 0000.0001) %MON dynstat_theta_mean           =   3.0732045908988E+00
(PID.TID 0000.0001) %MON dynstat_theta_sd             =   1.4278646050173E+00
(PID.TID 0000.0001) %MON dynstat_theta_del2           =   9.8056537424409E-03
(PID.TID 0000.0001) %MON dynstat_salt_max             =   3.5450866067096E+01
(PID.TID 0000.0001) %MON dynstat_salt_min             =   2.7643550512942E+01
(PID.TID 0000.0001) %MON dynstat_salt_mean            =   3.4746191012458E+01
(PID.TID 0000.0001) %MON dynstat_salt_sd              =   5.1251473924392E-01
(PID.TID 0000.0001) %MON dynstat_salt_del2            =   3.6459410962493E-03
(PID.TID 0000.0001) %MON dynstat_sst_max              =   5.4980184553122E+00
(PID.TID 0000.0001) %MON dynstat_sst_min              =  -1.9593288674726E+00
(PID.TID 0000.0001) %MON dynstat_sst_mean             =  -1.2382421941514E+00
(PID.TID 0000.0001) %MON dynstat_sst_sd               =   1.4419509676219E+00
(PID.TID 0000.0001) %MON dynstat_sst_del2             =   3.0267435330466E-02
(PID.TID 0000.0001) %MON dynstat_sss_max              =   3.2707402452168E+01
(PID.TID 0000.0001) %MON dynstat_sss_min              =   2.7643550512942E+01
(PID.TID 0000.0001) %MON dynstat_sss_mean             =   3.1229267874214E+01
(PID.TID 0000.0001) %MON dynstat_sss_sd               =   1.1620345861814E+00
(PID.TID 0000.0001) %MON dynstat_sss_del2             =   2.2275879831966E-02
(PID.TID 0000.0001) %MON forcing_qnet_max             =   1.9658046915779E+02
(PID.TID 0000.0001) %MON forcing_qnet_min             =  -4.8459507808829E+01
(PID.TID 0000.0001) %MON forcing_qnet_mean            =   3.1510623977833E+01
(PID.TID 0000.0001) %MON forcing_qnet_sd              =   4.3523137285783E+01
(PID.TID 0000.0001) %MON forcing_qnet_del2            =   2.3457804916592E+00
(PID.TID 0000.0001) %MON forcing_qsw_max              =   0.0000000000000E+00
(PID.TID 0000.0001) %MON forcing_qsw_min              =  -6.4124076818247E+01
(PID.TID 0000.0001) %MON forcing_qsw_mean             =  -1.6538772999525E+01
(PID.TID 0000.0001) %MON forcing_qsw_sd               =   2.3079398184255E+01
(PID.TID 0000.0001) %MON forcing_qsw_del2             =   1.0606430119820E+00
(PID.TID 0000.0001) %MON forcing_empmr_max            =   1.5200685104672E-04
(PID.TID 0000.0001) %MON forcing_empmr_min            =  -3.5644307557270E-04
(PID.TID 0000.0001) %MON forcing_empmr_mean           =  -5.4585516065949E-05
(PID.TID 0000.0001) %MON forcing_empmr_sd             =   1.0475651721525E-04
(PID.TID 0000.0001) %MON forcing_empmr_del2           =   6.5493756264783E-06
(PID.TID 0000.0001) %MON forcing_fu_max               =   8.1683204698334E-02
(PID.TID 0000.0001) %MON forcing_fu_min               =  -6.3453699230790E-03
(PID.TID 0000.0001) %MON forcing_fu_mean              =   2.5451676178502E-02
(PID.TID 0000.0001) %MON forcing_fu_sd                =   2.3120195119676E-02
(PID.TID 0000.0001) %MON forcing_fu_del2              =   1.1254982826204E-03
(PID.TID 0000.0001) %MON forcing_fv_max               =   1.0450747045727E-02
(PID.TID 0000.0001) %MON forcing_fv_min               =  -6.1756631898638E-02
(PID.TID 0000.0001) %MON forcing_fv_mean              =  -8.7452218044928E-03
(PID.TID 0000.0001) %MON forcing_fv_sd                =   1.5351676283898E-02
(PID.TID 0000.0001) %MON forcing_fv_del2              =   6.8247998399314E-04
(PID.TID 0000.0001) %MON trAdv_CFL_u_max              =   2.1835296180193E-03
(PID.TID 0000.0001) %MON trAdv_CFL_v_max              =   2.1420857476212E-03
(PID.TID 0000.0001) %MON trAdv_CFL_w_max              =   7.8395571939573E-03
(PID.TID 0000.0001) %MON advcfl_uvel_max              =   2.1834187628480E-03
(PID.TID 0000.0001) %MON advcfl_vvel_max              =   2.0938031489808E-03
(PID.TID 0000.0001) %MON advcfl_wvel_max              =   6.6863139454564E-03
(PID.TID 0000.0001) %MON advcfl_W_hf_max              =   7.8395571939573E-03
(PID.TID 0000.0001) %MON pe_b_mean                    =   1.6169681487088E-05
(PID.TID 0000.0001) %MON ke_max                       =   8.3228977507934E-03
(PID.TID 0000.0001) %MON ke_mean                      =   4.7497261540569E-05
(PID.TID 0000.0001) %MON ke_vol                       =   5.3036189546438E+15
(PID.TID 0000.0001) %MON vort_r_min                   =  -7.5996985701398E-07
(PID.TID 0000.0001) %MON vort_r_max                   =   4.1741207452654E-07
(PID.TID 0000.0001) %MON vort_a_mean                  =   1.2067277437000E-04
(PID.TID 0000.0001) %MON vort_a_sd                    =   8.8116965136181E-06
(PID.TID 0000.0001) %MON vort_p_mean                  =   1.7734842926373E-04
(PID.TID 0000.0001) %MON vort_p_sd                    =   1.1689427236985E-04
(PID.TID 0000.0001) %MON surfExpan_theta_mean         =  -8.2961216616245E-07
(PID.TID 0000.0001) %MON surfExpan_salt_mean          =   4.2377761396349E-07
(PID.TID 0000.0001) // =======================================================
(PID.TID 0000.0001) // End MONITOR dynamic field statistics
(PID.TID 0000.0001) // =======================================================
(PID.TID 0000.0001)  MDS_WRITE_FIELD: it,rec,kS,kL,kH=       9     1  23   1  23 file=U.0000000009
(PID.TID 0000.0001)  MDS_WRITE_FIELD: it,rec,kS,kL,kH=       9     1  23   1  23 file=V.0000000009
(PID.TID 0000.0001)  MDS_WRITE_FIELD: it,rec,kS,kL,kH=       9     1  23   1  23 file=T.0000000009
(PID.TID 0000.0001)  MDS_WRITE_FIELD: it,rec,kS,kL,kH=       9     1  23   1  23 file=S.0000000009
(PID.TID 0000.0001)  MDS_WRITE_FIELD: it,rec,kS,kL,kH=       9     1   1   1   1 file=Eta.0000000009
(PID.TID 0000.0001)  MDS_WRITE_FIELD: it,rec,kS,kL,kH=       9     1  23   1  23 file=W.0000000009
(PID.TID 0000.0001)  MDS_WRITE_FIELD: it,rec,kS,kL,kH=       9     1  23   1  23 file=PH.0000000009
(PID.TID 0000.0001)  MDS_WRITE_FIELD: it,rec,kS,kL,kH=       9     1   1   1   1 file=PHL.0000000009
(PID.TID 0000.0001)  MDS_WRITE_FIELD: it,rec,kS,kL,kH=       9     1   1   1   1 file=UWIND.0000000009
(PID.TID 0000.0001)  MDS_WRITE_FIELD: it,rec,kS,kL,kH=       9     1   1   1   1 file=VWIND.0000000009
(PID.TID 0000.0001)  MDS_WRITE_FIELD: it,rec,kS,kL,kH=       9     1   1   1   1 file=FU.0000000009
(PID.TID 0000.0001)  MDS_WRITE_FIELD: it,rec,kS,kL,kH=       9     1   1   1   1 file=FV.0000000009
(PID.TID 0000.0001)  MDS_WRITE_FIELD: it,rec,kS,kL,kH=       9     1   1   1   1 file=EmPmR.0000000009
(PID.TID 0000.0001)  MDS_WRITE_FIELD: it,rec,kS,kL,kH=       9     1   1   1   1 file=Qnet.0000000009
(PID.TID 0000.0001)  MDS_WRITE_FIELD: it,rec,kS,kL,kH=       9     1   1   1   1 file=Qsw.0000000009
(PID.TID 0000.0001)  MDS_WRITE_FIELD: it,rec,kS,kL,kH=       9     1   1   1   1 file=UICE.0000000009
(PID.TID 0000.0001)  MDS_WRITE_FIELD: it,rec,kS,kL,kH=       9     1   1   1   1 file=VICE.0000000009
(PID.TID 0000.0001)  MDS_WRITE_FIELD: it,rec,kS,kL,kH=       9     1   1   1   1 file=HEFF.0000000009
(PID.TID 0000.0001)  MDS_WRITE_FIELD: it,rec,kS,kL,kH=       9     1   1   1   1 file=AREA.0000000009
(PID.TID 0000.0001)  MDS_WRITE_FIELD: it,rec,kS,kL,kH=       9     1   1   1   1 file=HSNOW.0000000009
(PID.TID 0000.0001)  MDS_WRITE_FIELD: it,rec,kS,kL,kH=       9     1   1   1   1 file=HSALT.0000000009
(PID.TID 0000.0001) // =======================================================
(PID.TID 0000.0001) // Begin MONITOR SEAICE statistics
(PID.TID 0000.0001) // =======================================================
(PID.TID 0000.0001) %MON seaice_tsnumber              =                     9
(PID.TID 0000.0001) %MON seaice_time_sec              =   3.2400000000000E+04
(PID.TID 0000.0001) %MON seaice_uice_max              =   2.5133043292286E-01
(PID.TID 0000.0001) %MON seaice_uice_min              =  -2.4066288354912E-02
(PID.TID 0000.0001) %MON seaice_uice_mean             =   7.0209084457429E-02
(PID.TID 0000.0001) %MON seaice_uice_sd               =   7.0396237430225E-02
(PID.TID 0000.0001) %MON seaice_uice_del2             =   2.0779295835171E-03
(PID.TID 0000.0001) %MON seaice_vice_max              =   4.2149991387824E-02
(PID.TID 0000.0001) %MON seaice_vice_min              =  -1.7126290763054E-01
(PID.TID 0000.0001) %MON seaice_vice_mean             =  -5.8209309319046E-02
(PID.TID 0000.0001) %MON seaice_vice_sd               =   5.8085411338029E-02
(PID.TID 0000.0001) %MON seaice_vice_del2             =   2.1110240181248E-03
(PID.TID 0000.0001) %MON seaice_area_max              =   1.0000000000000E+00
(PID.TID 0000.0001) %MON seaice_area_min              =   0.0000000000000E+00
(PID.TID 0000.0001) %MON seaice_area_mean             =   6.3210939805344E-01
(PID.TID 0000.0001) %MON seaice_area_sd               =   4.8043699221634E-01
(PID.TID 0000.0001) %MON seaice_area_del2             =   2.9766525499962E-02
(PID.TID 0000.0001) %MON seaice_heff_max              =   5.7023318347255E-01
(PID.TID 0000.0001) %MON seaice_heff_min              =   0.0000000000000E+00
(PID.TID 0000.0001) %MON seaice_heff_mean             =   1.7781697982522E-01
(PID.TID 0000.0001) %MON seaice_heff_sd               =   1.8406434980022E-01
(PID.TID 0000.0001) %MON seaice_heff_del2             =   3.9868308272624E-03
(PID.TID 0000.0001) %MON seaice_hsnow_max             =   1.9969561281012E-01
(PID.TID 0000.0001) %MON seaice_hsnow_min             =   0.0000000000000E+00
(PID.TID 0000.0001) %MON seaice_hsnow_mean            =   6.3005665392930E-02
(PID.TID 0000.0001) %MON seaice_hsnow_sd              =   6.5202668397442E-02
(PID.TID 0000.0001) %MON seaice_hsnow_del2            =   1.4158239501955E-03
(PID.TID 0000.0001) %MON seaice_hsalt_max             =   5.0523850047316E+03
(PID.TID 0000.0001) %MON seaice_hsalt_min             =   0.0000000000000E+00
(PID.TID 0000.0001) %MON seaice_hsalt_mean            =   1.4620283036185E+03
(PID.TID 0000.0001) %MON seaice_hsalt_sd              =   1.5950961918441E+03
(PID.TID 0000.0001) %MON seaice_hsalt_del2            =   3.6050878693178E+01
(PID.TID 0000.0001) // =======================================================
(PID.TID 0000.0001) // End MONITOR SEAICE statistics
(PID.TID 0000.0001) // =======================================================
 Computing Diagnostic #     23  ETAN         Counter:       1   Parms: SM      M1      
(PID.TID 0000.0001)  MDS_WRITE_FIELD: it,rec,kS,kL,kH=       9    -1  46   1   1 file=diags/state_2d_set1.0000000009
 Computing Diagnostic #    294  SIarea       Counter:       1   Parms: SM      M1      
(PID.TID 0000.0001)  MDS_WRITE_FIELD: it,rec,kS,kL,kH=       9    -2  46   1   1 file=diags/state_2d_set1.0000000009
 Computing Diagnostic #    297  SIheff       Counter:       1   Parms: SM      M1      
(PID.TID 0000.0001)  MDS_WRITE_FIELD: it,rec,kS,kL,kH=       9    -3  46   1   1 file=diags/state_2d_set1.0000000009
 Computing Diagnostic #    299  SIhsnow      Counter:       1   Parms: SM      M1      
(PID.TID 0000.0001)  MDS_WRITE_FIELD: it,rec,kS,kL,kH=       9    -4  46   1   1 file=diags/state_2d_set1.0000000009
 Computing Diagnostic #     25  DETADT2      Counter:       1   Parms: SM      M1      
(PID.TID 0000.0001)  MDS_WRITE_FIELD: it,rec,kS,kL,kH=       9    -5  46   1   1 file=diags/state_2d_set1.0000000009
 Computing Diagnostic #     73  PHIBOT       Counter:       1   Parms: SM      M1      
(PID.TID 0000.0001)  MDS_WRITE_FIELD: it,rec,kS,kL,kH=       9    -6  46   1   1 file=diags/state_2d_set1.0000000009
 Computing Diagnostic #     82  sIceLoad     Counter:       1   Parms: SM      U1      
(PID.TID 0000.0001)  MDS_WRITE_FIELD: it,rec,kS,kL,kH=       9    -7  46   1   1 file=diags/state_2d_set1.0000000009
 Computing Diagnostic #     76  MXLDEPTH     Counter:       1   Parms: SM      M1      
(PID.TID 0000.0001)  MDS_WRITE_FIELD: it,rec,kS,kL,kH=       9    -8  46   1   1 file=diags/state_2d_set1.0000000009
 Computing Diagnostic #    325  SIatmFW      Counter:       1   Parms: SM      U1      
(PID.TID 0000.0001)  MDS_WRITE_FIELD: it,rec,kS,kL,kH=       9    -9  46   1   1 file=diags/state_2d_set1.0000000009
 Computing Diagnostic #     85  oceQnet      Counter:       1   Parms: SM      U1      
(PID.TID 0000.0001)  MDS_WRITE_FIELD: it,rec,kS,kL,kH=       9   -10  46   1   1 file=diags/state_2d_set1.0000000009
 Computing Diagnostic #     83  oceFWflx     Counter:       1   Parms: SM      U1      
(PID.TID 0000.0001)  MDS_WRITE_FIELD: it,rec,kS,kL,kH=       9   -11  46   1   1 file=diags/state_2d_set1.0000000009
 Computing Diagnostic #     79  oceTAUX      Counter:       1   Parms: UU      U1      
           Vector  Mate for  oceTAUX      Diagnostic #     80  oceTAUY  exists 
(PID.TID 0000.0001)  MDS_WRITE_FIELD: it,rec,kS,kL,kH=       9   -12  46   1   1 file=diags/state_2d_set1.0000000009
 Computing Diagnostic #     80  oceTAUY      Counter:       1   Parms: VV      U1      
           Vector  Mate for  oceTAUY      Diagnostic #     79  oceTAUX  exists 
(PID.TID 0000.0001)  MDS_WRITE_FIELD: it,rec,kS,kL,kH=       9   -13  46   1   1 file=diags/state_2d_set1.0000000009
 Computing Diagnostic #    311  SIuice       Counter:       1   Parms: UU      M1      
           Vector  Mate for  SIuice       Diagnostic #    312  SIvice   exists 
(PID.TID 0000.0001)  MDS_WRITE_FIELD: it,rec,kS,kL,kH=       9   -14  46   1   1 file=diags/state_2d_set1.0000000009
 Computing Diagnostic #    312  SIvice       Counter:       1   Parms: VV      M1      
           Vector  Mate for  SIvice       Diagnostic #    311  SIuice   exists 
(PID.TID 0000.0001)  MDS_WRITE_FIELD: it,rec,kS,kL,kH=       9   -15  46   1   1 file=diags/state_2d_set1.0000000009
 Computing Diagnostic #     24  ETANSQ       Counter:       1   Parms: SM P    M1      
(PID.TID 0000.0001)  MDS_WRITE_FIELD: it,rec,kS,kL,kH=       9   -16  46   1   1 file=diags/state_2d_set1.0000000009
 Computing Diagnostic #     26  THETA        Counter:       1   Parms: SMR     MR      
(PID.TID 0000.0001)  MDS_WRITE_FIELD: it,rec,kS,kL,kH=       9    -1  46   1  23 file=diags/state_3d_set1.0000000009
 Computing Diagnostic #     27  SALT         Counter:       1   Parms: SMR     MR      
(PID.TID 0000.0001)  MDS_WRITE_FIELD: it,rec,kS,kL,kH=       9    -2  46   1  23 file=diags/state_3d_set1.0000000009
 Computing Diagnostic #     45  UVELMASS     Counter:       1   Parms: UUr     MR      
           Vector  Mate for  UVELMASS     Diagnostic #     46  VVELMASS exists 
(PID.TID 0000.0001)  MDS_WRITE_FIELD: it,rec,kS,kL,kH=       9    -1  46   1  23 file=diags/trsp_3d_set1.0000000009
 Computing Diagnostic #     46  VVELMASS     Counter:       1   Parms: VVr     MR      
           Vector  Mate for  VVELMASS     Diagnostic #     45  UVELMASS exists 
(PID.TID 0000.0001)  MDS_WRITE_FIELD: it,rec,kS,kL,kH=       9    -2  46   1  23 file=diags/trsp_3d_set1.0000000009
 Computing Diagnostic #    224  EXFpreci     Counter:       1   Parms: SM      U1      
(PID.TID 0000.0001)  MDS_WRITE_FIELD: it,rec,kS,kL,kH=       9    -1  46   1   1 file=diags/exf_zflux_set1.0000000009
 Computing Diagnostic #    223  EXFevap      Counter:       1   Parms: SM      U1      
(PID.TID 0000.0001)  MDS_WRITE_FIELD: it,rec,kS,kL,kH=       9    -2  46   1   1 file=diags/exf_zflux_set1.0000000009
 Computing Diagnostic #    228  EXFroff      Counter:       1   Parms: SM      U1      
(PID.TID 0000.0001)  MDS_WRITE_FIELD: it,rec,kS,kL,kH=       9    -3  46   1   1 file=diags/exf_zflux_set1.0000000009
 Computing Diagnostic #    226  EXFempmr     Counter:       1   Parms: SM      U1      
(PID.TID 0000.0001)  MDS_WRITE_FIELD: it,rec,kS,kL,kH=       9    -4  46   1   1 file=diags/exf_zflux_set1.0000000009
 Computing Diagnostic #    212  EXFswdn      Counter:       1   Parms: SM      U1      
(PID.TID 0000.0001)  MDS_WRITE_FIELD: it,rec,kS,kL,kH=       9    -5  46   1   1 file=diags/exf_zflux_set1.0000000009
 Computing Diagnostic #    211  EXFlwdn      Counter:       1   Parms: SM      U1      
(PID.TID 0000.0001)  MDS_WRITE_FIELD: it,rec,kS,kL,kH=       9    -6  46   1   1 file=diags/exf_zflux_set1.0000000009
 Computing Diagnostic #    210  EXFswnet     Counter:       1   Parms: SM      U1      
(PID.TID 0000.0001)  MDS_WRITE_FIELD: it,rec,kS,kL,kH=       9    -7  46   1   1 file=diags/exf_zflux_set1.0000000009
 Computing Diagnostic #    209  EXFlwnet     Counter:       1   Parms: SM      U1      
(PID.TID 0000.0001)  MDS_WRITE_FIELD: it,rec,kS,kL,kH=       9    -8  46   1   1 file=diags/exf_zflux_set1.0000000009
 Computing Diagnostic #    213  EXFqnet      Counter:       1   Parms: SM      U1      
(PID.TID 0000.0001)  MDS_WRITE_FIELD: it,rec,kS,kL,kH=       9    -9  46   1   1 file=diags/exf_zflux_set1.0000000009
 Computing Diagnostic #    221  EXFatemp     Counter:       1   Parms: SM      U1      
(PID.TID 0000.0001)  MDS_WRITE_FIELD: it,rec,kS,kL,kH=       9   -10  46   1   1 file=diags/exf_zflux_set1.0000000009
 Computing Diagnostic #    222  EXFaqh       Counter:       1   Parms: SM      U1      
(PID.TID 0000.0001)  MDS_WRITE_FIELD: it,rec,kS,kL,kH=       9   -11  46   1   1 file=diags/exf_zflux_set1.0000000009
 Computing Diagnostic #    214  EXFtaux      Counter:       1   Parms: UM      U1      
(PID.TID 0000.0001)  MDS_WRITE_FIELD: it,rec,kS,kL,kH=       9   -12  46   1   1 file=diags/exf_zflux_set1.0000000009
 Computing Diagnostic #    215  EXFtauy      Counter:       1   Parms: VM      U1      
(PID.TID 0000.0001)  MDS_WRITE_FIELD: it,rec,kS,kL,kH=       9   -13  46   1   1 file=diags/exf_zflux_set1.0000000009
 Computing Diagnostic #    216  EXFuwind     Counter:       1   Parms: UM      U1      
(PID.TID 0000.0001)  MDS_WRITE_FIELD: it,rec,kS,kL,kH=       9   -14  46   1   1 file=diags/exf_zflux_set1.0000000009
 Computing Diagnostic #    217  EXFvwind     Counter:       1   Parms: VM      U1      
(PID.TID 0000.0001)  MDS_WRITE_FIELD: it,rec,kS,kL,kH=       9   -15  46   1   1 file=diags/exf_zflux_set1.0000000009
 Computing Diagnostic #    227  EXFpress     Counter:       1   Parms: SM      U1      
(PID.TID 0000.0001)  MDS_WRITE_FIELD: it,rec,kS,kL,kH=       9   -16  46   1   1 file=diags/exf_zflux_set1.0000000009
 Computing Diagnostic #    207  EXFhs        Counter:       1   Parms: SM      U1      
(PID.TID 0000.0001)  MDS_WRITE_FIELD: it,rec,kS,kL,kH=       9   -17  46   1   1 file=diags/exf_zflux_set1.0000000009
 Computing Diagnostic #    208  EXFhl        Counter:       1   Parms: SM      U1      
(PID.TID 0000.0001)  MDS_WRITE_FIELD: it,rec,kS,kL,kH=       9   -18  46   1   1 file=diags/exf_zflux_set1.0000000009
(PID.TID 0000.0001)  write diagnostics summary to file: diagnostics_status.0000000009.txt
(PID.TID 0000.0001)  MDS_WRITE_FIELD: it,rec,kS,kL,kH=       9     1  23   1  23 file=pickup_cd.0000000009
(PID.TID 0000.0001)  MDS_WRITE_FIELD: it,rec,kS,kL,kH=       9     2  23   1  23 file=pickup_cd.0000000009
(PID.TID 0000.0001)  MDS_WRITE_FIELD: it,rec,kS,kL,kH=       9     3  23   1  23 file=pickup_cd.0000000009
(PID.TID 0000.0001)  MDS_WRITE_FIELD: it,rec,kS,kL,kH=       9     4  23   1  23 file=pickup_cd.0000000009
(PID.TID 0000.0001)  MDS_WRITE_FIELD: it,rec,kS,kL,kH=       9    93   1   1   1 file=pickup_cd.0000000009
(PID.TID 0000.0001)  MDS_WRITE_FIELD: it,rec,kS,kL,kH=       9    -1   7   1   7 file=pickup_seaice.0000000009
(PID.TID 0000.0001)  MDS_WRITE_FIELD: it,rec,kS,kL,kH=       9    -8   1   1   1 file=pickup_seaice.0000000009
(PID.TID 0000.0001)  MDS_WRITE_FIELD: it,rec,kS,kL,kH=       9    -9   1   1   1 file=pickup_seaice.0000000009
(PID.TID 0000.0001)  MDS_WRITE_FIELD: it,rec,kS,kL,kH=       9   -10   1   1   1 file=pickup_seaice.0000000009
(PID.TID 0000.0001)  MDS_WRITE_FIELD: it,rec,kS,kL,kH=       9   -11   1   1   1 file=pickup_seaice.0000000009
(PID.TID 0000.0001)  MDS_WRITE_FIELD: it,rec,kS,kL,kH=       9   -12   1   1   1 file=pickup_seaice.0000000009
(PID.TID 0000.0001)  MDS_WRITE_FIELD: it,rec,kS,kL,kH=       9   -13   1   1   1 file=pickup_seaice.0000000009
(PID.TID 0000.0001)  MDS_WRITE_FIELD: it,rec,kS,kL,kH=       9    -1  23   1  23 file=pickup.0000000009
(PID.TID 0000.0001)  MDS_WRITE_FIELD: it,rec,kS,kL,kH=       9    -2  23   1  23 file=pickup.0000000009
(PID.TID 0000.0001)  MDS_WRITE_FIELD: it,rec,kS,kL,kH=       9    -3  23   1  23 file=pickup.0000000009
(PID.TID 0000.0001)  MDS_WRITE_FIELD: it,rec,kS,kL,kH=       9    -4  23   1  23 file=pickup.0000000009
(PID.TID 0000.0001)  MDS_WRITE_FIELD: it,rec,kS,kL,kH=       9    -5  23   1  23 file=pickup.0000000009
(PID.TID 0000.0001)  MDS_WRITE_FIELD: it,rec,kS,kL,kH=       9    -6  23   1  23 file=pickup.0000000009
(PID.TID 0000.0001)  MDS_WRITE_FIELD: it,rec,kS,kL,kH=       9  -139   1   1   1 file=pickup.0000000009
(PID.TID 0000.0001)  MDS_WRITE_FIELD: it,rec,kS,kL,kH=       9  -140   1   1   1 file=pickup.0000000009
(PID.TID 0000.0001)  MDS_WRITE_FIELD: it,rec,kS,kL,kH=       9  -141   1   1   1 file=pickup.0000000009
(PID.TID 0000.0001) %CHECKPOINT         9 0000000009
(PID.TID 0000.0001) ADWRITE: tid,vid, irec, length, prec(x2)=    39     1     2      672  8 64 fname=tapelev3_1_the_main_loop_etan
(PID.TID 0000.0001) ADWRITE:  tapeFileCounter =     1
(PID.TID 0000.0001) ADWRITE: tid,vid, irec, length, prec(x2)=    39     2     2      672  8 64 fname=tapelev3_2_the_main_loop_taux0
(PID.TID 0000.0001) ADWRITE:  tapeFileCounter =     2
(PID.TID 0000.0001) ADWRITE: tid,vid, irec, length, prec(x2)=    39     3     2      672  8 64 fname=tapelev3_3_the_main_loop_taux1
(PID.TID 0000.0001) ADWRITE:  tapeFileCounter =     3
(PID.TID 0000.0001) ADWRITE: tid,vid, irec, length, prec(x2)=    39     4     2      672  8 64 fname=tapelev3_4_the_main_loop_tauy0
(PID.TID 0000.0001) ADWRITE:  tapeFileCounter =     4
(PID.TID 0000.0001) ADWRITE: tid,vid, irec, length, prec(x2)=    39     5     2      672  8 64 fname=tapelev3_5_the_main_loop_tauy1
(PID.TID 0000.0001) ADWRITE:  tapeFileCounter =     5
(PID.TID 0000.0001) ADWRITE: tid,vid, irec, length, prec(x2)=    39     6     2      672  8 64 fname=tapelev3_6_the_main_loop_qnet0
(PID.TID 0000.0001) ADWRITE:  tapeFileCounter =     6
(PID.TID 0000.0001) ADWRITE: tid,vid, irec, length, prec(x2)=    39     7     2      672  8 64 fname=tapelev3_7_the_main_loop_qnet1
(PID.TID 0000.0001) ADWRITE:  tapeFileCounter =     7
(PID.TID 0000.0001) ADWRITE: tid,vid, irec, length, prec(x2)=    39     8     2      672  8 64 fname=tapelev3_8_the_main_loop_empmr0
(PID.TID 0000.0001) ADWRITE:  tapeFileCounter =     8
(PID.TID 0000.0001) ADWRITE: tid,vid, irec, length, prec(x2)=    39     9     2      672  8 64 fname=tapelev3_9_the_main_loop_empmr1
(PID.TID 0000.0001) ADWRITE:  tapeFileCounter =     9
(PID.TID 0000.0001) ADWRITE: tid,vid, irec, length, prec(x2)=    39    10     2      672  8 64 fname=tapelev3_10_the_main_loop_sst0
(PID.TID 0000.0001) ADWRITE:  tapeFileCounter =    10
(PID.TID 0000.0001) ADWRITE: tid,vid, irec, length, prec(x2)=    39    11     2      672  8 64 fname=tapelev3_11_the_main_loop_sst1
(PID.TID 0000.0001) ADWRITE:  tapeFileCounter =    11
(PID.TID 0000.0001) ADWRITE: tid,vid, irec, length, prec(x2)=    39    12     2      672  8 64 fname=tapelev3_12_the_main_loop_sss0
(PID.TID 0000.0001) ADWRITE:  tapeFileCounter =    12
(PID.TID 0000.0001) ADWRITE: tid,vid, irec, length, prec(x2)=    39    13     2      672  8 64 fname=tapelev3_13_the_main_loop_sss1
(PID.TID 0000.0001) ADWRITE:  tapeFileCounter =    13
(PID.TID 0000.0001) ADWRITE: tid,vid, irec, length, prec(x2)=    39    14     2      672  8 64 fname=tapelev3_14_the_main_loop_saltflux0
(PID.TID 0000.0001) ADWRITE:  tapeFileCounter =    14
(PID.TID 0000.0001) ADWRITE: tid,vid, irec, length, prec(x2)=    39    15     2      672  8 64 fname=tapelev3_15_the_main_loop_saltflux1
(PID.TID 0000.0001) ADWRITE:  tapeFileCounter =    15
(PID.TID 0000.0001) ADWRITE: tid,vid, irec, length, prec(x2)=    39    16     2      672  8 64 fname=tapelev3_16_the_main_loop_qsw0
(PID.TID 0000.0001) ADWRITE:  tapeFileCounter =    16
(PID.TID 0000.0001) ADWRITE: tid,vid, irec, length, prec(x2)=    39    17     2      672  8 64 fname=tapelev3_17_the_main_loop_qsw1
(PID.TID 0000.0001) ADWRITE:  tapeFileCounter =    17
(PID.TID 0000.0001) ADWRITE: tid,vid, irec, length, prec(x2)=    39    18     2      672  8 64 fname=tapelev3_18_the_main_loop_pload0
(PID.TID 0000.0001) ADWRITE:  tapeFileCounter =    18
(PID.TID 0000.0001) ADWRITE: tid,vid, irec, length, prec(x2)=    39    19     2      672  8 64 fname=tapelev3_19_the_main_loop_pload1
(PID.TID 0000.0001) ADWRITE:  tapeFileCounter =    19
(PID.TID 0000.0001) ADWRITE: tid,vid, irec, length, prec(x2)=    39    20     2      672  8 64 fname=tapelev3_20_the_main_loop_etah
(PID.TID 0000.0001) ADWRITE:  tapeFileCounter =    20
(PID.TID 0000.0001) ADWRITE: tid,vid, irec, length, prec(x2)=    39    21     2      672  8 64 fname=tapelev3_21_the_main_loop_detahdt
(PID.TID 0000.0001) ADWRITE:  tapeFileCounter =    21
(PID.TID 0000.0001) ADWRITE: tid,vid, irec, length, prec(x2)=    39    22     2      672  8 64 fname=tapelev3_22_the_main_loop_pmepr
(PID.TID 0000.0001) ADWRITE:  tapeFileCounter =    22
(PID.TID 0000.0001) ADWRITE: tid,vid, irec, length, prec(x2)=    39    23     2    15456  8 64 fname=tapelev3_23_the_main_loop_gtnm1
(PID.TID 0000.0001) ADWRITE:  tapeFileCounter =    23
(PID.TID 0000.0001) ADWRITE:  tapeFileCounter =    24
(PID.TID 0000.0001) ADWRITE:  tapeFileCounter =    25
(PID.TID 0000.0001) ADWRITE:  tapeFileCounter =    26
(PID.TID 0000.0001) ADWRITE:  tapeFileCounter =    27
(PID.TID 0000.0001) ADWRITE:  tapeFileCounter =    28
(PID.TID 0000.0001) ADWRITE:  tapeFileCounter =    29
(PID.TID 0000.0001) ADWRITE:  tapeFileCounter =    30
(PID.TID 0000.0001) ADWRITE:  tapeFileCounter =    31
(PID.TID 0000.0001) ADWRITE:  tapeFileCounter =    32
(PID.TID 0000.0001) ADWRITE:  tapeFileCounter =    33
(PID.TID 0000.0001) ADWRITE:  tapeFileCounter =    34
(PID.TID 0000.0001) ADWRITE:  tapeFileCounter =    35
(PID.TID 0000.0001) ADWRITE:  tapeFileCounter =    36
(PID.TID 0000.0001) ADWRITE:  tapeFileCounter =    37
(PID.TID 0000.0001) ADWRITE:  tapeFileCounter =    38
(PID.TID 0000.0001) ADWRITE:  tapeFileCounter =    39
(PID.TID 0000.0001) ADWRITE:  tapeFileCounter =    40
(PID.TID 0000.0001) ADWRITE:  tapeFileCounter =    41
(PID.TID 0000.0001) ADWRITE:  tapeFileCounter =    42
(PID.TID 0000.0001) ADWRITE:  tapeFileCounter =    43
(PID.TID 0000.0001) ADWRITE:  tapeFileCounter =    44
(PID.TID 0000.0001) ADWRITE:  tapeFileCounter =    45
(PID.TID 0000.0001) ADWRITE: tid,vid, irec, length, prec(x2)=    39    24     2    15456  8 64 fname=tapelev3_24_the_main_loop_gsnm1
(PID.TID 0000.0001) ADWRITE:  tapeFileCounter =    46
(PID.TID 0000.0001) ADWRITE:  tapeFileCounter =    47
(PID.TID 0000.0001) ADWRITE:  tapeFileCounter =    48
(PID.TID 0000.0001) ADWRITE:  tapeFileCounter =    49
(PID.TID 0000.0001) ADWRITE:  tapeFileCounter =    50
(PID.TID 0000.0001) ADWRITE:  tapeFileCounter =    51
(PID.TID 0000.0001) ADWRITE:  tapeFileCounter =    52
(PID.TID 0000.0001) ADWRITE:  tapeFileCounter =    53
(PID.TID 0000.0001) ADWRITE:  tapeFileCounter =    54
(PID.TID 0000.0001) ADWRITE:  tapeFileCounter =    55
(PID.TID 0000.0001) ADWRITE:  tapeFileCounter =    56
(PID.TID 0000.0001) ADWRITE:  tapeFileCounter =    57
(PID.TID 0000.0001) ADWRITE:  tapeFileCounter =    58
(PID.TID 0000.0001) ADWRITE:  tapeFileCounter =    59
(PID.TID 0000.0001) ADWRITE:  tapeFileCounter =    60
(PID.TID 0000.0001) ADWRITE:  tapeFileCounter =    61
(PID.TID 0000.0001) ADWRITE:  tapeFileCounter =    62
(PID.TID 0000.0001) ADWRITE:  tapeFileCounter =    63
(PID.TID 0000.0001) ADWRITE:  tapeFileCounter =    64
(PID.TID 0000.0001) ADWRITE:  tapeFileCounter =    65
(PID.TID 0000.0001) ADWRITE:  tapeFileCounter =    66
(PID.TID 0000.0001) ADWRITE:  tapeFileCounter =    67
(PID.TID 0000.0001) ADWRITE:  tapeFileCounter =    68
(PID.TID 0000.0001) ADWRITE: tid,vid, irec, length, prec(x2)=    39    25     2    15456  8 64 fname=tapelev3_25_the_main_loop_gunm1
(PID.TID 0000.0001) ADWRITE:  tapeFileCounter =    69
(PID.TID 0000.0001) ADWRITE:  tapeFileCounter =    70
(PID.TID 0000.0001) ADWRITE:  tapeFileCounter =    71
(PID.TID 0000.0001) ADWRITE:  tapeFileCounter =    72
(PID.TID 0000.0001) ADWRITE:  tapeFileCounter =    73
(PID.TID 0000.0001) ADWRITE:  tapeFileCounter =    74
(PID.TID 0000.0001) ADWRITE:  tapeFileCounter =    75
(PID.TID 0000.0001) ADWRITE:  tapeFileCounter =    76
(PID.TID 0000.0001) ADWRITE:  tapeFileCounter =    77
(PID.TID 0000.0001) ADWRITE:  tapeFileCounter =    78
(PID.TID 0000.0001) ADWRITE:  tapeFileCounter =    79
(PID.TID 0000.0001) ADWRITE:  tapeFileCounter =    80
(PID.TID 0000.0001) ADWRITE:  tapeFileCounter =    81
(PID.TID 0000.0001) ADWRITE:  tapeFileCounter =    82
(PID.TID 0000.0001) ADWRITE:  tapeFileCounter =    83
(PID.TID 0000.0001) ADWRITE:  tapeFileCounter =    84
(PID.TID 0000.0001) ADWRITE:  tapeFileCounter =    85
(PID.TID 0000.0001) ADWRITE:  tapeFileCounter =    86
(PID.TID 0000.0001) ADWRITE:  tapeFileCounter =    87
(PID.TID 0000.0001) ADWRITE:  tapeFileCounter =    88
(PID.TID 0000.0001) ADWRITE:  tapeFileCounter =    89
(PID.TID 0000.0001) ADWRITE:  tapeFileCounter =    90
(PID.TID 0000.0001) ADWRITE:  tapeFileCounter =    91
(PID.TID 0000.0001) ADWRITE: tid,vid, irec, length, prec(x2)=    39    26     2    15456  8 64 fname=tapelev3_26_the_main_loop_gvnm1
(PID.TID 0000.0001) ADWRITE:  tapeFileCounter =    92
(PID.TID 0000.0001) ADWRITE:  tapeFileCounter =    93
(PID.TID 0000.0001) ADWRITE:  tapeFileCounter =    94
(PID.TID 0000.0001) ADWRITE:  tapeFileCounter =    95
(PID.TID 0000.0001) ADWRITE:  tapeFileCounter =    96
(PID.TID 0000.0001) ADWRITE:  tapeFileCounter =    97
(PID.TID 0000.0001) ADWRITE:  tapeFileCounter =    98
(PID.TID 0000.0001) ADWRITE:  tapeFileCounter =    99
(PID.TID 0000.0001) ADWRITE:  tapeFileCounter =   100
(PID.TID 0000.0001) ADWRITE:  tapeFileCounter =   101
(PID.TID 0000.0001) ADWRITE:  tapeFileCounter =   102
(PID.TID 0000.0001) ADWRITE:  tapeFileCounter =   103
(PID.TID 0000.0001) ADWRITE:  tapeFileCounter =   104
(PID.TID 0000.0001) ADWRITE:  tapeFileCounter =   105
(PID.TID 0000.0001) ADWRITE:  tapeFileCounter =   106
(PID.TID 0000.0001) ADWRITE:  tapeFileCounter =   107
(PID.TID 0000.0001) ADWRITE:  tapeFileCounter =   108
(PID.TID 0000.0001) ADWRITE:  tapeFileCounter =   109
(PID.TID 0000.0001) ADWRITE:  tapeFileCounter =   110
(PID.TID 0000.0001) ADWRITE:  tapeFileCounter =   111
(PID.TID 0000.0001) ADWRITE:  tapeFileCounter =   112
(PID.TID 0000.0001) ADWRITE:  tapeFileCounter =   113
(PID.TID 0000.0001) ADWRITE:  tapeFileCounter =   114
(PID.TID 0000.0001) ADWRITE: tid,vid, irec, length, prec(x2)=    39    27     2    15456  8 64 fname=tapelev3_27_the_main_loop_theta
(PID.TID 0000.0001) ADWRITE:  tapeFileCounter =   115
(PID.TID 0000.0001) ADWRITE:  tapeFileCounter =   116
(PID.TID 0000.0001) ADWRITE:  tapeFileCounter =   117
(PID.TID 0000.0001) ADWRITE:  tapeFileCounter =   118
(PID.TID 0000.0001) ADWRITE:  tapeFileCounter =   119
(PID.TID 0000.0001) ADWRITE:  tapeFileCounter =   120
(PID.TID 0000.0001) ADWRITE:  tapeFileCounter =   121
(PID.TID 0000.0001) ADWRITE:  tapeFileCounter =   122
(PID.TID 0000.0001) ADWRITE:  tapeFileCounter =   123
(PID.TID 0000.0001) ADWRITE:  tapeFileCounter =   124
(PID.TID 0000.0001) ADWRITE:  tapeFileCounter =   125
(PID.TID 0000.0001) ADWRITE:  tapeFileCounter =   126
(PID.TID 0000.0001) ADWRITE:  tapeFileCounter =   127
(PID.TID 0000.0001) ADWRITE:  tapeFileCounter =   128
(PID.TID 0000.0001) ADWRITE:  tapeFileCounter =   129
(PID.TID 0000.0001) ADWRITE:  tapeFileCounter =   130
(PID.TID 0000.0001) ADWRITE:  tapeFileCounter =   131
(PID.TID 0000.0001) ADWRITE:  tapeFileCounter =   132
(PID.TID 0000.0001) ADWRITE:  tapeFileCounter =   133
(PID.TID 0000.0001) ADWRITE:  tapeFileCounter =   134
(PID.TID 0000.0001) ADWRITE:  tapeFileCounter =   135
(PID.TID 0000.0001) ADWRITE:  tapeFileCounter =   136
(PID.TID 0000.0001) ADWRITE:  tapeFileCounter =   137
(PID.TID 0000.0001) ADWRITE: tid,vid, irec, length, prec(x2)=    39    28     2    15456  8 64 fname=tapelev3_28_the_main_loop_salt
(PID.TID 0000.0001) ADWRITE:  tapeFileCounter =   138
(PID.TID 0000.0001) ADWRITE:  tapeFileCounter =   139
(PID.TID 0000.0001) ADWRITE:  tapeFileCounter =   140
(PID.TID 0000.0001) ADWRITE:  tapeFileCounter =   141
(PID.TID 0000.0001) ADWRITE:  tapeFileCounter =   142
(PID.TID 0000.0001) ADWRITE:  tapeFileCounter =   143
(PID.TID 0000.0001) ADWRITE:  tapeFileCounter =   144
(PID.TID 0000.0001) ADWRITE:  tapeFileCounter =   145
(PID.TID 0000.0001) ADWRITE:  tapeFileCounter =   146
(PID.TID 0000.0001) ADWRITE:  tapeFileCounter =   147
(PID.TID 0000.0001) ADWRITE:  tapeFileCounter =   148
(PID.TID 0000.0001) ADWRITE:  tapeFileCounter =   149
(PID.TID 0000.0001) ADWRITE:  tapeFileCounter =   150
(PID.TID 0000.0001) ADWRITE:  tapeFileCounter =   151
(PID.TID 0000.0001) ADWRITE:  tapeFileCounter =   152
(PID.TID 0000.0001) ADWRITE:  tapeFileCounter =   153
(PID.TID 0000.0001) ADWRITE:  tapeFileCounter =   154
(PID.TID 0000.0001) ADWRITE:  tapeFileCounter =   155
(PID.TID 0000.0001) ADWRITE:  tapeFileCounter =   156
(PID.TID 0000.0001) ADWRITE:  tapeFileCounter =   157
(PID.TID 0000.0001) ADWRITE:  tapeFileCounter =   158
(PID.TID 0000.0001) ADWRITE:  tapeFileCounter =   159
(PID.TID 0000.0001) ADWRITE:  tapeFileCounter =   160
(PID.TID 0000.0001) ADWRITE: tid,vid, irec, length, prec(x2)=    39    29     2    15456  8 64 fname=tapelev3_29_the_main_loop_uvel
(PID.TID 0000.0001) ADWRITE:  tapeFileCounter =   161
(PID.TID 0000.0001) ADWRITE:  tapeFileCounter =   162
(PID.TID 0000.0001) ADWRITE:  tapeFileCounter =   163
(PID.TID 0000.0001) ADWRITE:  tapeFileCounter =   164
(PID.TID 0000.0001) ADWRITE:  tapeFileCounter =   165
(PID.TID 0000.0001) ADWRITE:  tapeFileCounter =   166
(PID.TID 0000.0001) ADWRITE:  tapeFileCounter =   167
(PID.TID 0000.0001) ADWRITE:  tapeFileCounter =   168
(PID.TID 0000.0001) ADWRITE:  tapeFileCounter =   169
(PID.TID 0000.0001) ADWRITE:  tapeFileCounter =   170
(PID.TID 0000.0001) ADWRITE:  tapeFileCounter =   171
(PID.TID 0000.0001) ADWRITE:  tapeFileCounter =   172
(PID.TID 0000.0001) ADWRITE:  tapeFileCounter =   173
(PID.TID 0000.0001) ADWRITE:  tapeFileCounter =   174
(PID.TID 0000.0001) ADWRITE:  tapeFileCounter =   175
(PID.TID 0000.0001) ADWRITE:  tapeFileCounter =   176
(PID.TID 0000.0001) ADWRITE:  tapeFileCounter =   177
(PID.TID 0000.0001) ADWRITE:  tapeFileCounter =   178
(PID.TID 0000.0001) ADWRITE:  tapeFileCounter =   179
(PID.TID 0000.0001) ADWRITE:  tapeFileCounter =   180
(PID.TID 0000.0001) ADWRITE:  tapeFileCounter =   181
(PID.TID 0000.0001) ADWRITE:  tapeFileCounter =   182
(PID.TID 0000.0001) ADWRITE:  tapeFileCounter =   183
(PID.TID 0000.0001) ADWRITE: tid,vid, irec, length, prec(x2)=    39    30     2    15456  8 64 fname=tapelev3_30_the_main_loop_vvel
(PID.TID 0000.0001) ADWRITE:  tapeFileCounter =   184
(PID.TID 0000.0001) ADWRITE:  tapeFileCounter =   185
(PID.TID 0000.0001) ADWRITE:  tapeFileCounter =   186
(PID.TID 0000.0001) ADWRITE:  tapeFileCounter =   187
(PID.TID 0000.0001) ADWRITE:  tapeFileCounter =   188
(PID.TID 0000.0001) ADWRITE:  tapeFileCounter =   189
(PID.TID 0000.0001) ADWRITE:  tapeFileCounter =   190
(PID.TID 0000.0001) ADWRITE:  tapeFileCounter =   191
(PID.TID 0000.0001) ADWRITE:  tapeFileCounter =   192
(PID.TID 0000.0001) ADWRITE:  tapeFileCounter =   193
(PID.TID 0000.0001) ADWRITE:  tapeFileCounter =   194
(PID.TID 0000.0001) ADWRITE:  tapeFileCounter =   195
(PID.TID 0000.0001) ADWRITE:  tapeFileCounter =   196
(PID.TID 0000.0001) ADWRITE:  tapeFileCounter =   197
(PID.TID 0000.0001) ADWRITE:  tapeFileCounter =   198
(PID.TID 0000.0001) ADWRITE:  tapeFileCounter =   199
(PID.TID 0000.0001) ADWRITE:  tapeFileCounter =   200
(PID.TID 0000.0001) ADWRITE:  tapeFileCounter =   201
(PID.TID 0000.0001) ADWRITE:  tapeFileCounter =   202
(PID.TID 0000.0001) ADWRITE:  tapeFileCounter =   203
(PID.TID 0000.0001) ADWRITE:  tapeFileCounter =   204
(PID.TID 0000.0001) ADWRITE:  tapeFileCounter =   205
(PID.TID 0000.0001) ADWRITE:  tapeFileCounter =   206
(PID.TID 0000.0001) ADWRITE: tid,vid, irec, length, prec(x2)=    39    31     2    15456  8 64 fname=tapelev3_31_the_main_loop_wvel
(PID.TID 0000.0001) ADWRITE:  tapeFileCounter =   207
(PID.TID 0000.0001) ADWRITE:  tapeFileCounter =   208
(PID.TID 0000.0001) ADWRITE:  tapeFileCounter =   209
(PID.TID 0000.0001) ADWRITE:  tapeFileCounter =   210
(PID.TID 0000.0001) ADWRITE:  tapeFileCounter =   211
(PID.TID 0000.0001) ADWRITE:  tapeFileCounter =   212
(PID.TID 0000.0001) ADWRITE:  tapeFileCounter =   213
(PID.TID 0000.0001) ADWRITE:  tapeFileCounter =   214
(PID.TID 0000.0001) ADWRITE:  tapeFileCounter =   215
(PID.TID 0000.0001) ADWRITE:  tapeFileCounter =   216
(PID.TID 0000.0001) ADWRITE:  tapeFileCounter =   217
(PID.TID 0000.0001) ADWRITE:  tapeFileCounter =   218
(PID.TID 0000.0001) ADWRITE:  tapeFileCounter =   219
(PID.TID 0000.0001) ADWRITE:  tapeFileCounter =   220
(PID.TID 0000.0001) ADWRITE:  tapeFileCounter =   221
(PID.TID 0000.0001) ADWRITE:  tapeFileCounter =   222
(PID.TID 0000.0001) ADWRITE:  tapeFileCounter =   223
(PID.TID 0000.0001) ADWRITE:  tapeFileCounter =   224
(PID.TID 0000.0001) ADWRITE:  tapeFileCounter =   225
(PID.TID 0000.0001) ADWRITE:  tapeFileCounter =   226
(PID.TID 0000.0001) ADWRITE:  tapeFileCounter =   227
(PID.TID 0000.0001) ADWRITE:  tapeFileCounter =   228
(PID.TID 0000.0001) ADWRITE:  tapeFileCounter =   229
(PID.TID 0000.0001) ADWRITE: tid,vid, irec, length, prec(x2)=    39    32     2    15456  8 64 fname=tapelev3_32_the_main_loop_totphihyd
(PID.TID 0000.0001) ADWRITE:  tapeFileCounter =   230
(PID.TID 0000.0001) ADWRITE:  tapeFileCounter =   231
(PID.TID 0000.0001) ADWRITE:  tapeFileCounter =   232
(PID.TID 0000.0001) ADWRITE:  tapeFileCounter =   233
(PID.TID 0000.0001) ADWRITE:  tapeFileCounter =   234
(PID.TID 0000.0001) ADWRITE:  tapeFileCounter =   235
(PID.TID 0000.0001) ADWRITE:  tapeFileCounter =   236
(PID.TID 0000.0001) ADWRITE:  tapeFileCounter =   237
(PID.TID 0000.0001) ADWRITE:  tapeFileCounter =   238
(PID.TID 0000.0001) ADWRITE:  tapeFileCounter =   239
(PID.TID 0000.0001) ADWRITE:  tapeFileCounter =   240
(PID.TID 0000.0001) ADWRITE:  tapeFileCounter =   241
(PID.TID 0000.0001) ADWRITE:  tapeFileCounter =   242
(PID.TID 0000.0001) ADWRITE:  tapeFileCounter =   243
(PID.TID 0000.0001) ADWRITE:  tapeFileCounter =   244
(PID.TID 0000.0001) ADWRITE:  tapeFileCounter =   245
(PID.TID 0000.0001) ADWRITE:  tapeFileCounter =   246
(PID.TID 0000.0001) ADWRITE:  tapeFileCounter =   247
(PID.TID 0000.0001) ADWRITE:  tapeFileCounter =   248
(PID.TID 0000.0001) ADWRITE:  tapeFileCounter =   249
(PID.TID 0000.0001) ADWRITE:  tapeFileCounter =   250
(PID.TID 0000.0001) ADWRITE:  tapeFileCounter =   251
(PID.TID 0000.0001) ADWRITE:  tapeFileCounter =   252
(PID.TID 0000.0001) ADWRITE: tid,vid, irec, length, prec(x2)=    39    35     2    15456  8 64 fname=tapelev3_35_the_main_loop_uveld
(PID.TID 0000.0001) ADWRITE:  tapeFileCounter =   253
(PID.TID 0000.0001) ADWRITE:  tapeFileCounter =   254
(PID.TID 0000.0001) ADWRITE:  tapeFileCounter =   255
(PID.TID 0000.0001) ADWRITE:  tapeFileCounter =   256
(PID.TID 0000.0001) ADWRITE:  tapeFileCounter =   257
(PID.TID 0000.0001) ADWRITE:  tapeFileCounter =   258
(PID.TID 0000.0001) ADWRITE:  tapeFileCounter =   259
(PID.TID 0000.0001) ADWRITE:  tapeFileCounter =   260
(PID.TID 0000.0001) ADWRITE:  tapeFileCounter =   261
(PID.TID 0000.0001) ADWRITE:  tapeFileCounter =   262
(PID.TID 0000.0001) ADWRITE:  tapeFileCounter =   263
(PID.TID 0000.0001) ADWRITE:  tapeFileCounter =   264
(PID.TID 0000.0001) ADWRITE:  tapeFileCounter =   265
(PID.TID 0000.0001) ADWRITE:  tapeFileCounter =   266
(PID.TID 0000.0001) ADWRITE:  tapeFileCounter =   267
(PID.TID 0000.0001) ADWRITE:  tapeFileCounter =   268
(PID.TID 0000.0001) ADWRITE:  tapeFileCounter =   269
(PID.TID 0000.0001) ADWRITE:  tapeFileCounter =   270
(PID.TID 0000.0001) ADWRITE:  tapeFileCounter =   271
(PID.TID 0000.0001) ADWRITE:  tapeFileCounter =   272
(PID.TID 0000.0001) ADWRITE:  tapeFileCounter =   273
(PID.TID 0000.0001) ADWRITE:  tapeFileCounter =   274
(PID.TID 0000.0001) ADWRITE:  tapeFileCounter =   275
(PID.TID 0000.0001) ADWRITE: tid,vid, irec, length, prec(x2)=    39    36     2    15456  8 64 fname=tapelev3_36_the_main_loop_vveld
(PID.TID 0000.0001) ADWRITE:  tapeFileCounter =   276
(PID.TID 0000.0001) ADWRITE:  tapeFileCounter =   277
(PID.TID 0000.0001) ADWRITE:  tapeFileCounter =   278
(PID.TID 0000.0001) ADWRITE:  tapeFileCounter =   279
(PID.TID 0000.0001) ADWRITE:  tapeFileCounter =   280
(PID.TID 0000.0001) ADWRITE:  tapeFileCounter =   281
(PID.TID 0000.0001) ADWRITE:  tapeFileCounter =   282
(PID.TID 0000.0001) ADWRITE:  tapeFileCounter =   283
(PID.TID 0000.0001) ADWRITE:  tapeFileCounter =   284
(PID.TID 0000.0001) ADWRITE:  tapeFileCounter =   285
(PID.TID 0000.0001) ADWRITE:  tapeFileCounter =   286
(PID.TID 0000.0001) ADWRITE:  tapeFileCounter =   287
(PID.TID 0000.0001) ADWRITE:  tapeFileCounter =   288
(PID.TID 0000.0001) ADWRITE:  tapeFileCounter =   289
(PID.TID 0000.0001) ADWRITE:  tapeFileCounter =   290
(PID.TID 0000.0001) ADWRITE:  tapeFileCounter =   291
(PID.TID 0000.0001) ADWRITE:  tapeFileCounter =   292
(PID.TID 0000.0001) ADWRITE:  tapeFileCounter =   293
(PID.TID 0000.0001) ADWRITE:  tapeFileCounter =   294
(PID.TID 0000.0001) ADWRITE:  tapeFileCounter =   295
(PID.TID 0000.0001) ADWRITE:  tapeFileCounter =   296
(PID.TID 0000.0001) ADWRITE:  tapeFileCounter =   297
(PID.TID 0000.0001) ADWRITE:  tapeFileCounter =   298
(PID.TID 0000.0001) ADWRITE: tid,vid, irec, length, prec(x2)=    39    37     2      672  8 64 fname=tapelev3_37_the_main_loop_etanm1
(PID.TID 0000.0001) ADWRITE:  tapeFileCounter =   299
(PID.TID 0000.0001) ADWRITE: tid,vid, irec, length, prec(x2)=    39    38     2    15456  8 64 fname=tapelev3_38_the_main_loop_unm1
(PID.TID 0000.0001) ADWRITE:  tapeFileCounter =   300
(PID.TID 0000.0001) ADWRITE:  tapeFileCounter =   301
(PID.TID 0000.0001) ADWRITE:  tapeFileCounter =   302
(PID.TID 0000.0001) ADWRITE:  tapeFileCounter =   303
(PID.TID 0000.0001) ADWRITE:  tapeFileCounter =   304
(PID.TID 0000.0001) ADWRITE:  tapeFileCounter =   305
(PID.TID 0000.0001) ADWRITE:  tapeFileCounter =   306
(PID.TID 0000.0001) ADWRITE:  tapeFileCounter =   307
(PID.TID 0000.0001) ADWRITE:  tapeFileCounter =   308
(PID.TID 0000.0001) ADWRITE:  tapeFileCounter =   309
(PID.TID 0000.0001) ADWRITE:  tapeFileCounter =   310
(PID.TID 0000.0001) ADWRITE:  tapeFileCounter =   311
(PID.TID 0000.0001) ADWRITE:  tapeFileCounter =   312
(PID.TID 0000.0001) ADWRITE:  tapeFileCounter =   313
(PID.TID 0000.0001) ADWRITE:  tapeFileCounter =   314
(PID.TID 0000.0001) ADWRITE:  tapeFileCounter =   315
(PID.TID 0000.0001) ADWRITE:  tapeFileCounter =   316
(PID.TID 0000.0001) ADWRITE:  tapeFileCounter =   317
(PID.TID 0000.0001) ADWRITE:  tapeFileCounter =   318
(PID.TID 0000.0001) ADWRITE:  tapeFileCounter =   319
(PID.TID 0000.0001) ADWRITE:  tapeFileCounter =   320
(PID.TID 0000.0001) ADWRITE:  tapeFileCounter =   321
(PID.TID 0000.0001) ADWRITE:  tapeFileCounter =   322
(PID.TID 0000.0001) ADWRITE: tid,vid, irec, length, prec(x2)=    39    39     2    15456  8 64 fname=tapelev3_39_the_main_loop_vnm1
(PID.TID 0000.0001) ADWRITE:  tapeFileCounter =   323
(PID.TID 0000.0001) ADWRITE:  tapeFileCounter =   324
(PID.TID 0000.0001) ADWRITE:  tapeFileCounter =   325
(PID.TID 0000.0001) ADWRITE:  tapeFileCounter =   326
(PID.TID 0000.0001) ADWRITE:  tapeFileCounter =   327
(PID.TID 0000.0001) ADWRITE:  tapeFileCounter =   328
(PID.TID 0000.0001) ADWRITE:  tapeFileCounter =   329
(PID.TID 0000.0001) ADWRITE:  tapeFileCounter =   330
(PID.TID 0000.0001) ADWRITE:  tapeFileCounter =   331
(PID.TID 0000.0001) ADWRITE:  tapeFileCounter =   332
(PID.TID 0000.0001) ADWRITE:  tapeFileCounter =   333
(PID.TID 0000.0001) ADWRITE:  tapeFileCounter =   334
(PID.TID 0000.0001) ADWRITE:  tapeFileCounter =   335
(PID.TID 0000.0001) ADWRITE:  tapeFileCounter =   336
(PID.TID 0000.0001) ADWRITE:  tapeFileCounter =   337
(PID.TID 0000.0001) ADWRITE:  tapeFileCounter =   338
(PID.TID 0000.0001) ADWRITE:  tapeFileCounter =   339
(PID.TID 0000.0001) ADWRITE:  tapeFileCounter =   340
(PID.TID 0000.0001) ADWRITE:  tapeFileCounter =   341
(PID.TID 0000.0001) ADWRITE:  tapeFileCounter =   342
(PID.TID 0000.0001) ADWRITE:  tapeFileCounter =   343
(PID.TID 0000.0001) ADWRITE:  tapeFileCounter =   344
(PID.TID 0000.0001) ADWRITE:  tapeFileCounter =   345
(PID.TID 0000.0001) ADWRITE: tid,vid, irec, length, prec(x2)=    39    40     2      672  8 64 fname=tapelev3_40_the_main_loop_areamask0
(PID.TID 0000.0001) ADWRITE:  tapeFileCounter =   346
(PID.TID 0000.0001) ADWRITE: tid,vid, irec, length, prec(x2)=    39    41     2      672  8 64 fname=tapelev3_41_the_main_loop_areamask1
(PID.TID 0000.0001) ADWRITE:  tapeFileCounter =   347
(PID.TID 0000.0001) ADWRITE: tid,vid, irec, length, prec(x2)=    39    42     2      672  8 64 fname=tapelev3_42_the_main_loop_hflux0
(PID.TID 0000.0001) ADWRITE:  tapeFileCounter =   348
(PID.TID 0000.0001) ADWRITE: tid,vid, irec, length, prec(x2)=    39    43     2      672  8 64 fname=tapelev3_43_the_main_loop_hflux1
(PID.TID 0000.0001) ADWRITE:  tapeFileCounter =   349
(PID.TID 0000.0001) ADWRITE: tid,vid, irec, length, prec(x2)=    39    44     2      672  8 64 fname=tapelev3_44_the_main_loop_sflux0
(PID.TID 0000.0001) ADWRITE:  tapeFileCounter =   350
(PID.TID 0000.0001) ADWRITE: tid,vid, irec, length, prec(x2)=    39    45     2      672  8 64 fname=tapelev3_45_the_main_loop_sflux1
(PID.TID 0000.0001) ADWRITE:  tapeFileCounter =   351
(PID.TID 0000.0001) ADWRITE: tid,vid, irec, length, prec(x2)=    39    46     2      672  8 64 fname=tapelev3_46_the_main_loop_ustress0
(PID.TID 0000.0001) ADWRITE:  tapeFileCounter =   352
(PID.TID 0000.0001) ADWRITE: tid,vid, irec, length, prec(x2)=    39    47     2      672  8 64 fname=tapelev3_47_the_main_loop_ustress1
(PID.TID 0000.0001) ADWRITE:  tapeFileCounter =   353
(PID.TID 0000.0001) ADWRITE: tid,vid, irec, length, prec(x2)=    39    48     2      672  8 64 fname=tapelev3_48_the_main_loop_vstress0
(PID.TID 0000.0001) ADWRITE:  tapeFileCounter =   354
(PID.TID 0000.0001) ADWRITE: tid,vid, irec, length, prec(x2)=    39    49     2      672  8 64 fname=tapelev3_49_the_main_loop_vstress1
(PID.TID 0000.0001) ADWRITE:  tapeFileCounter =   355
(PID.TID 0000.0001) ADWRITE: tid,vid, irec, length, prec(x2)=    39    50     2      672  8 64 fname=tapelev3_50_the_main_loop_wspeed0
(PID.TID 0000.0001) ADWRITE:  tapeFileCounter =   356
(PID.TID 0000.0001) ADWRITE: tid,vid, irec, length, prec(x2)=    39    51     2      672  8 64 fname=tapelev3_51_the_main_loop_wspeed1
(PID.TID 0000.0001) ADWRITE:  tapeFileCounter =   357
(PID.TID 0000.0001) ADWRITE: tid,vid, irec, length, prec(x2)=    39    54     2      672  8 64 fname=tapelev3_54_the_main_loop_runoff0
(PID.TID 0000.0001) ADWRITE:  tapeFileCounter =   358
(PID.TID 0000.0001) ADWRITE: tid,vid, irec, length, prec(x2)=    39    55     2      672  8 64 fname=tapelev3_55_the_main_loop_runoff1
(PID.TID 0000.0001) ADWRITE:  tapeFileCounter =   359
(PID.TID 0000.0001) ADWRITE: tid,vid, irec, length, prec(x2)=    39    56     2      672  8 64 fname=tapelev3_56_the_main_loop_apressure0
(PID.TID 0000.0001) ADWRITE:  tapeFileCounter =   360
(PID.TID 0000.0001) ADWRITE: tid,vid, irec, length, prec(x2)=    39    57     2      672  8 64 fname=tapelev3_57_the_main_loop_apressure1
(PID.TID 0000.0001) ADWRITE:  tapeFileCounter =   361
(PID.TID 0000.0001) ADWRITE: tid,vid, irec, length, prec(x2)=    39    58     2      672  8 64 fname=tapelev3_58_the_main_loop_siceload
(PID.TID 0000.0001) ADWRITE:  tapeFileCounter =   362
(PID.TID 0000.0001) ADWRITE: tid,vid, irec, length, prec(x2)=    39    59     2      672  8 64 fname=tapelev3_59_the_main_loop_climsss0
(PID.TID 0000.0001) ADWRITE:  tapeFileCounter =   363
(PID.TID 0000.0001) ADWRITE: tid,vid, irec, length, prec(x2)=    39    60     2      672  8 64 fname=tapelev3_60_the_main_loop_climsss1
(PID.TID 0000.0001) ADWRITE:  tapeFileCounter =   364
(PID.TID 0000.0001) ADWRITE: tid,vid, irec, length, prec(x2)=    39    61     2      672  8 64 fname=tapelev3_61_the_main_loop_climsst0
(PID.TID 0000.0001) ADWRITE:  tapeFileCounter =   365
(PID.TID 0000.0001) ADWRITE: tid,vid, irec, length, prec(x2)=    39    62     2      672  8 64 fname=tapelev3_62_the_main_loop_climsst1
(PID.TID 0000.0001) ADWRITE:  tapeFileCounter =   366
(PID.TID 0000.0001) ADWRITE: tid,vid, irec, length, prec(x2)=    39    63     2      672  8 64 fname=tapelev3_63_the_main_loop_saltflx0
(PID.TID 0000.0001) ADWRITE:  tapeFileCounter =   367
(PID.TID 0000.0001) ADWRITE: tid,vid, irec, length, prec(x2)=    39    64     2      672  8 64 fname=tapelev3_64_the_main_loop_saltflx1
(PID.TID 0000.0001) ADWRITE:  tapeFileCounter =   368
(PID.TID 0000.0001) ADWRITE: tid,vid, irec, length, prec(x2)=    39    65     2      672  8 64 fname=tapelev3_65_the_main_loop_aqh0
(PID.TID 0000.0001) ADWRITE:  tapeFileCounter =   369
(PID.TID 0000.0001) ADWRITE: tid,vid, irec, length, prec(x2)=    39    66     2      672  8 64 fname=tapelev3_66_the_main_loop_aqh1
(PID.TID 0000.0001) ADWRITE:  tapeFileCounter =   370
(PID.TID 0000.0001) ADWRITE: tid,vid, irec, length, prec(x2)=    39    67     2      672  8 64 fname=tapelev3_67_the_main_loop_atemp0
(PID.TID 0000.0001) ADWRITE:  tapeFileCounter =   371
(PID.TID 0000.0001) ADWRITE: tid,vid, irec, length, prec(x2)=    39    68     2      672  8 64 fname=tapelev3_68_the_main_loop_atemp1
(PID.TID 0000.0001) ADWRITE:  tapeFileCounter =   372
(PID.TID 0000.0001) ADWRITE: tid,vid, irec, length, prec(x2)=    39    69     2      672  8 64 fname=tapelev3_69_the_main_loop_precip0
(PID.TID 0000.0001) ADWRITE:  tapeFileCounter =   373
(PID.TID 0000.0001) ADWRITE: tid,vid, irec, length, prec(x2)=    39    70     2      672  8 64 fname=tapelev3_70_the_main_loop_precip1
(PID.TID 0000.0001) ADWRITE:  tapeFileCounter =   374
(PID.TID 0000.0001) ADWRITE: tid,vid, irec, length, prec(x2)=    39    73     2      672  8 64 fname=tapelev3_73_the_main_loop_snowprecip0
(PID.TID 0000.0001) ADWRITE:  tapeFileCounter =   375
(PID.TID 0000.0001) ADWRITE: tid,vid, irec, length, prec(x2)=    39    74     2      672  8 64 fname=tapelev3_74_the_main_loop_snowprecip1
(PID.TID 0000.0001) ADWRITE:  tapeFileCounter =   376
(PID.TID 0000.0001) ADWRITE: tid,vid, irec, length, prec(x2)=    39    75     2      672  8 64 fname=tapelev3_75_the_main_loop_swdown0
(PID.TID 0000.0001) ADWRITE:  tapeFileCounter =   377
(PID.TID 0000.0001) ADWRITE: tid,vid, irec, length, prec(x2)=    39    76     2      672  8 64 fname=tapelev3_76_the_main_loop_swdown1
(PID.TID 0000.0001) ADWRITE:  tapeFileCounter =   378
(PID.TID 0000.0001) ADWRITE: tid,vid, irec, length, prec(x2)=    39    77     2      672  8 64 fname=tapelev3_77_the_main_loop_lwdown0
(PID.TID 0000.0001) ADWRITE:  tapeFileCounter =   379
(PID.TID 0000.0001) ADWRITE: tid,vid, irec, length, prec(x2)=    39    78     2      672  8 64 fname=tapelev3_78_the_main_loop_lwdown1
(PID.TID 0000.0001) ADWRITE:  tapeFileCounter =   380
(PID.TID 0000.0001) ADWRITE: tid,vid, irec, length, prec(x2)=    39    79     2      672  8 64 fname=tapelev3_79_the_main_loop_uwind0
(PID.TID 0000.0001) ADWRITE:  tapeFileCounter =   381
(PID.TID 0000.0001) ADWRITE: tid,vid, irec, length, prec(x2)=    39    80     2      672  8 64 fname=tapelev3_80_the_main_loop_uwind1
(PID.TID 0000.0001) ADWRITE:  tapeFileCounter =   382
(PID.TID 0000.0001) ADWRITE: tid,vid, irec, length, prec(x2)=    39    81     2      672  8 64 fname=tapelev3_81_the_main_loop_vwind0
(PID.TID 0000.0001) ADWRITE:  tapeFileCounter =   383
(PID.TID 0000.0001) ADWRITE: tid,vid, irec, length, prec(x2)=    39    82     2      672  8 64 fname=tapelev3_82_the_main_loop_vwind1
(PID.TID 0000.0001) ADWRITE:  tapeFileCounter =   384
(PID.TID 0000.0001) ADWRITE: tid,vid, irec, length, prec(x2)=    39    83     2     6048  8 64 fname=tapelev3_83_the_main_loop_xx_gentim2d
(PID.TID 0000.0001) ADWRITE:  tapeFileCounter =   385
(PID.TID 0000.0001) ADWRITE:  tapeFileCounter =   386
(PID.TID 0000.0001) ADWRITE:  tapeFileCounter =   387
(PID.TID 0000.0001) ADWRITE:  tapeFileCounter =   388
(PID.TID 0000.0001) ADWRITE:  tapeFileCounter =   389
(PID.TID 0000.0001) ADWRITE:  tapeFileCounter =   390
(PID.TID 0000.0001) ADWRITE:  tapeFileCounter =   391
(PID.TID 0000.0001) ADWRITE:  tapeFileCounter =   392
(PID.TID 0000.0001) ADWRITE:  tapeFileCounter =   393
(PID.TID 0000.0001) ADWRITE: tid,vid, irec, length, prec(x2)=    39    84     2     6048  8 64 fname=tapelev3_84_the_main_loop_xx_gentim2d0
(PID.TID 0000.0001) ADWRITE:  tapeFileCounter =   394
(PID.TID 0000.0001) ADWRITE:  tapeFileCounter =   395
(PID.TID 0000.0001) ADWRITE:  tapeFileCounter =   396
(PID.TID 0000.0001) ADWRITE:  tapeFileCounter =   397
(PID.TID 0000.0001) ADWRITE:  tapeFileCounter =   398
(PID.TID 0000.0001) ADWRITE:  tapeFileCounter =   399
(PID.TID 0000.0001) ADWRITE:  tapeFileCounter =   400
(PID.TID 0000.0001) ADWRITE:  tapeFileCounter =   401
(PID.TID 0000.0001) ADWRITE:  tapeFileCounter =   402
(PID.TID 0000.0001) ADWRITE: tid,vid, irec, length, prec(x2)=    39    85     2     6048  8 64 fname=tapelev3_85_the_main_loop_xx_gentim2d1
(PID.TID 0000.0001) ADWRITE:  tapeFileCounter =   403
(PID.TID 0000.0001) ADWRITE:  tapeFileCounter =   404
(PID.TID 0000.0001) ADWRITE:  tapeFileCounter =   405
(PID.TID 0000.0001) ADWRITE:  tapeFileCounter =   406
(PID.TID 0000.0001) ADWRITE:  tapeFileCounter =   407
(PID.TID 0000.0001) ADWRITE:  tapeFileCounter =   408
(PID.TID 0000.0001) ADWRITE:  tapeFileCounter =   409
(PID.TID 0000.0001) ADWRITE:  tapeFileCounter =   410
(PID.TID 0000.0001) ADWRITE:  tapeFileCounter =   411
(PID.TID 0000.0001) ADWRITE: tid,vid, irec, length, prec(x2)=    39    87     2      672  8 64 fname=tapelev3_87_the_main_loop_phihydlow
(PID.TID 0000.0001) ADWRITE:  tapeFileCounter =   412
(PID.TID 0000.0001) ADWRITE: tid,vid, irec, length, prec(x2)=    39    88     2      672  8 64 fname=tapelev3_88_the_main_loop_area
(PID.TID 0000.0001) ADWRITE:  tapeFileCounter =   413
(PID.TID 0000.0001) ADWRITE: tid,vid, irec, length, prec(x2)=    39    89     2      672  8 64 fname=tapelev3_89_the_main_loop_heff
(PID.TID 0000.0001) ADWRITE:  tapeFileCounter =   414
(PID.TID 0000.0001) ADWRITE: tid,vid, irec, length, prec(x2)=    39    90     2      672  8 64 fname=tapelev3_90_the_main_loop_hsnow
(PID.TID 0000.0001) ADWRITE:  tapeFileCounter =   415
(PID.TID 0000.0001) ADWRITE: tid,vid, irec, length, prec(x2)=    39    92     2      672  8 64 fname=tapelev3_92_the_main_loop_uice
(PID.TID 0000.0001) ADWRITE:  tapeFileCounter =   416
(PID.TID 0000.0001) ADWRITE: tid,vid, irec, length, prec(x2)=    39    93     2      672  8 64 fname=tapelev3_93_the_main_loop_vice
(PID.TID 0000.0001) ADWRITE:  tapeFileCounter =   417
(PID.TID 0000.0001) ADWRITE: tid,vid, irec, length, prec(x2)=    39    96     2     4704  8 64 fname=tapelev3_96_the_main_loop_tices
(PID.TID 0000.0001) ADWRITE:  tapeFileCounter =   418
(PID.TID 0000.0001) ADWRITE:  tapeFileCounter =   419
(PID.TID 0000.0001) ADWRITE:  tapeFileCounter =   420
(PID.TID 0000.0001) ADWRITE:  tapeFileCounter =   421
(PID.TID 0000.0001) ADWRITE:  tapeFileCounter =   422
(PID.TID 0000.0001) ADWRITE:  tapeFileCounter =   423
(PID.TID 0000.0001) ADWRITE:  tapeFileCounter =   424
(PID.TID 0000.0001) ADWRITE: tid,vid, irec, length, prec(x2)=    39    97     2      672  8 64 fname=tapelev3_97_the_main_loop_dwatn
(PID.TID 0000.0001) ADWRITE:  tapeFileCounter =   425
(PID.TID 0000.0001) ADWRITE: tid,vid, irec, length, prec(x2)=    39    98     2      672  8 64 fname=tapelev3_98_the_main_loop_stressdivergencex
(PID.TID 0000.0001) ADWRITE:  tapeFileCounter =   426
(PID.TID 0000.0001) ADWRITE: tid,vid, irec, length, prec(x2)=    39    99     2      672  8 64 fname=tapelev3_99_the_main_loop_stressdivergencey
(PID.TID 0000.0001) ADWRITE:  tapeFileCounter =   427
(PID.TID 0000.0001) ADWRITE: tid,vid, irec, length, prec(x2)=    39   100     2      672  8 64 fname=tapelev3_100_the_main_loop_seaice_sigma1
(PID.TID 0000.0001) ADWRITE:  tapeFileCounter =   428
(PID.TID 0000.0001) ADWRITE: tid,vid, irec, length, prec(x2)=    39   101     2      672  8 64 fname=tapelev3_101_the_main_loop_seaice_sigma2
(PID.TID 0000.0001) ADWRITE:  tapeFileCounter =   429
(PID.TID 0000.0001) ADWRITE: tid,vid, irec, length, prec(x2)=    39   102     2      672  8 64 fname=tapelev3_102_the_main_loop_seaice_sigma12
(PID.TID 0000.0001) ADWRITE:  tapeFileCounter =   430
(PID.TID 0000.0001) ADWRITE: tid,vid, irec, length, prec(x2)=    39   103     2      672  8 64 fname=tapelev3_103_the_main_loop_hsalt
(PID.TID 0000.0001) ADWRITE:  tapeFileCounter =   431
(PID.TID 0000.0001) whio : write lev 3 rec   2
(PID.TID 0000.0001)  MDS_WRITE_FIELD: it,rec,kS,kL,kH=       1     5   1   1   1 file=m_sst_step.0000000001
(PID.TID 0000.0001) gencost # 03
(PID.TID 0000.0001)  MDS_READ_FIELD: opening global file: sigma_sst.bin
(PID.TID 0000.0001)  MDS_READ_FIELD: opening global file: m_sst_step.0000000001.data
(PID.TID 0000.0001)  MDS_READ_FIELD: opening global file: labsea_SST_fields_t5
(PID.TID 0000.0001)  MDS_WRITE_FIELD: it,rec,kS,kL,kH=       1     1   1   1   1 file=misfit_sst
(PID.TID 0000.0001)  MDS_READ_FIELD: opening global file: sigma_sst.bin
(PID.TID 0000.0001)  MDS_READ_FIELD: opening global file: m_sst_step.0000000001.data
(PID.TID 0000.0001)  MDS_READ_FIELD: opening global file: labsea_SST_fields_t5
(PID.TID 0000.0001)  MDS_WRITE_FIELD: it,rec,kS,kL,kH=       1     2   1   1   1 file=misfit_sst
(PID.TID 0000.0001)  MDS_READ_FIELD: opening global file: sigma_sst.bin
(PID.TID 0000.0001)  MDS_READ_FIELD: opening global file: m_sst_step.0000000001.data
(PID.TID 0000.0001)  MDS_READ_FIELD: opening global file: labsea_SST_fields_t5
(PID.TID 0000.0001)  MDS_WRITE_FIELD: it,rec,kS,kL,kH=       1     3   1   1   1 file=misfit_sst
(PID.TID 0000.0001)  MDS_READ_FIELD: opening global file: sigma_sst.bin
(PID.TID 0000.0001)  MDS_READ_FIELD: opening global file: m_sst_step.0000000001.data
(PID.TID 0000.0001)  MDS_READ_FIELD: opening global file: labsea_SST_fields_t5
(PID.TID 0000.0001)  MDS_WRITE_FIELD: it,rec,kS,kL,kH=       1     4   1   1   1 file=misfit_sst
(PID.TID 0000.0001)  MDS_READ_FIELD: opening global file: sigma_sst.bin
(PID.TID 0000.0001)  MDS_READ_FIELD: opening global file: m_sst_step.0000000001.data
(PID.TID 0000.0001)  MDS_READ_FIELD: opening global file: labsea_SST_fields_t5
(PID.TID 0000.0001)  MDS_WRITE_FIELD: it,rec,kS,kL,kH=       1     5   1   1   1 file=misfit_sst
(PID.TID 0000.0001)  MDS_READ_FIELD: opening global file: xx_atemp.0000000001.data
(PID.TID 0000.0001)  MDS_READ_FIELD: opening global file: xx_atemp.0000000001.data
(PID.TID 0000.0001)  MDS_READ_FIELD: opening global file: xx_atemp.0000000001.data
(PID.TID 0000.0001)  MDS_READ_FIELD: opening global file: xx_atemp.0000000001.data
(PID.TID 0000.0001)  MDS_READ_FIELD: opening global file: xx_atemp.0000000001.data
(PID.TID 0000.0001)  MDS_READ_FIELD: opening global file: xx_atemp.0000000001.data
(PID.TID 0000.0001)  MDS_READ_FIELD: opening global file: xx_atemp.0000000001.data
(PID.TID 0000.0001)  MDS_READ_FIELD: opening global file: xx_atemp.0000000001.data
(PID.TID 0000.0001)  MDS_READ_FIELD: opening global file: xx_atemp.0000000001.data
(PID.TID 0000.0001)  MDS_READ_FIELD: opening global file: xx_atemp.0000000001.data
(PID.TID 0000.0001)  MDS_READ_FIELD: opening global file: xx_atemp.0000000001.data
 --> f_ice     = 0.000000000000000D+00
 --> f_smrarea = 0.000000000000000D+00
 --> f_smrarea = 0.000000000000000D+00
 --> f_smrarea = 0.000000000000000D+00
(PID.TID 0000.0001)  --> f_gencost = 0.527453128215446D+04 3
(PID.TID 0000.0001)  --> f_gentim2d = 0.243375000000000D+03 1
(PID.TID 0000.0001)  --> fc               = 0.527453128215446D+04
(PID.TID 0000.0001)  cost_Final: final cost function =  0.527453128215446D+04
(PID.TID 0000.0001) 
(PID.TID 0000.0001)              cost function evaluation finished.
(PID.TID 0000.0001) 
(PID.TID 0000.0001)   early fc =  0.000000000000000D+00
(PID.TID 0000.0001)   local fc =  0.527453128215446D+04
(PID.TID 0000.0001)  global fc =  0.527453128215446D+04
(PID.TID 0000.0001)  MDS_READ_FIELD: opening global file: xx_atemp.0000000001.data
(PID.TID 0000.0001)  MDS_READ_FIELD: opening global file: adxx_atemp.0000000001.data
(PID.TID 0000.0001)  MDS_WRITE_FIELD: it,rec,kS,kL,kH=       1   -11  23   1   1 file=adxx_atemp.0000000001
(PID.TID 0000.0001)  MDS_READ_FIELD: opening global file: xx_atemp.0000000001.data
(PID.TID 0000.0001)  MDS_READ_FIELD: opening global file: adxx_atemp.0000000001.data
(PID.TID 0000.0001)  MDS_WRITE_FIELD: it,rec,kS,kL,kH=       1   -10  23   1   1 file=adxx_atemp.0000000001
(PID.TID 0000.0001)  MDS_READ_FIELD: opening global file: xx_atemp.0000000001.data
(PID.TID 0000.0001)  MDS_READ_FIELD: opening global file: adxx_atemp.0000000001.data
(PID.TID 0000.0001)  MDS_WRITE_FIELD: it,rec,kS,kL,kH=       1    -9  23   1   1 file=adxx_atemp.0000000001
(PID.TID 0000.0001)  MDS_READ_FIELD: opening global file: xx_atemp.0000000001.data
(PID.TID 0000.0001)  MDS_READ_FIELD: opening global file: adxx_atemp.0000000001.data
(PID.TID 0000.0001)  MDS_WRITE_FIELD: it,rec,kS,kL,kH=       1    -8  23   1   1 file=adxx_atemp.0000000001
(PID.TID 0000.0001)  MDS_READ_FIELD: opening global file: xx_atemp.0000000001.data
(PID.TID 0000.0001)  MDS_READ_FIELD: opening global file: adxx_atemp.0000000001.data
(PID.TID 0000.0001)  MDS_WRITE_FIELD: it,rec,kS,kL,kH=       1    -7  23   1   1 file=adxx_atemp.0000000001
(PID.TID 0000.0001)  MDS_READ_FIELD: opening global file: xx_atemp.0000000001.data
(PID.TID 0000.0001)  MDS_READ_FIELD: opening global file: adxx_atemp.0000000001.data
(PID.TID 0000.0001)  MDS_WRITE_FIELD: it,rec,kS,kL,kH=       1    -6  23   1   1 file=adxx_atemp.0000000001
(PID.TID 0000.0001)  MDS_READ_FIELD: opening global file: xx_atemp.0000000001.data
(PID.TID 0000.0001)  MDS_READ_FIELD: opening global file: adxx_atemp.0000000001.data
(PID.TID 0000.0001)  MDS_WRITE_FIELD: it,rec,kS,kL,kH=       1    -5  23   1   1 file=adxx_atemp.0000000001
(PID.TID 0000.0001)  MDS_READ_FIELD: opening global file: xx_atemp.0000000001.data
(PID.TID 0000.0001)  MDS_READ_FIELD: opening global file: adxx_atemp.0000000001.data
(PID.TID 0000.0001)  MDS_WRITE_FIELD: it,rec,kS,kL,kH=       1    -4  23   1   1 file=adxx_atemp.0000000001
(PID.TID 0000.0001)  MDS_READ_FIELD: opening global file: xx_atemp.0000000001.data
(PID.TID 0000.0001)  MDS_READ_FIELD: opening global file: adxx_atemp.0000000001.data
(PID.TID 0000.0001)  MDS_WRITE_FIELD: it,rec,kS,kL,kH=       1    -3  23   1   1 file=adxx_atemp.0000000001
(PID.TID 0000.0001)  MDS_READ_FIELD: opening global file: xx_atemp.0000000001.data
(PID.TID 0000.0001)  MDS_READ_FIELD: opening global file: adxx_atemp.0000000001.data
(PID.TID 0000.0001)  MDS_WRITE_FIELD: it,rec,kS,kL,kH=       1    -2  23   1   1 file=adxx_atemp.0000000001
(PID.TID 0000.0001)  MDS_READ_FIELD: opening global file: xx_atemp.0000000001.data
(PID.TID 0000.0001)  MDS_READ_FIELD: opening global file: adxx_atemp.0000000001.data
(PID.TID 0000.0001)  MDS_WRITE_FIELD: it,rec,kS,kL,kH=       1    -1  23   1   1 file=adxx_atemp.0000000001
(PID.TID 0000.0001)  MDS_READ_FIELD: opening global file: sigma_sst.bin
(PID.TID 0000.0001)  MDS_READ_FIELD: opening global file: m_sst_step.0000000001.data
(PID.TID 0000.0001)  MDS_READ_FIELD: opening global file: labsea_SST_fields_t5
(PID.TID 0000.0001)  MDS_READ_FIELD: opening global file: sigma_sst.bin
(PID.TID 0000.0001)  MDS_READ_FIELD: opening global file: m_sst_step.0000000001.data
(PID.TID 0000.0001)  MDS_READ_FIELD: opening global file: labsea_SST_fields_t5
(PID.TID 0000.0001)  MDS_READ_FIELD: opening global file: sigma_sst.bin
(PID.TID 0000.0001)  MDS_READ_FIELD: opening global file: m_sst_step.0000000001.data
(PID.TID 0000.0001)  MDS_READ_FIELD: opening global file: labsea_SST_fields_t5
(PID.TID 0000.0001)  MDS_READ_FIELD: opening global file: sigma_sst.bin
(PID.TID 0000.0001)  MDS_READ_FIELD: opening global file: m_sst_step.0000000001.data
(PID.TID 0000.0001)  MDS_READ_FIELD: opening global file: labsea_SST_fields_t5
(PID.TID 0000.0001)  MDS_READ_FIELD: opening global file: sigma_sst.bin
(PID.TID 0000.0001)  MDS_READ_FIELD: opening global file: m_sst_step.0000000001.data
(PID.TID 0000.0001)  MDS_READ_FIELD: opening global file: labsea_SST_fields_t5
(PID.TID 0000.0001)  MDS_READ_FIELD: opening global file: sigma_sst.bin
(PID.TID 0000.0001)  MDS_READ_FIELD: opening global file: m_sst_step.0000000001.data
(PID.TID 0000.0001)  MDS_READ_FIELD: opening global file: labsea_SST_fields_t5
(PID.TID 0000.0001)  MDS_READ_FIELD: opening global file: adm_sst_step.0000000001.data
(PID.TID 0000.0001)  MDS_WRITE_FIELD: it,rec,kS,kL,kH=       1    -5  23   1   1 file=adm_sst_step.0000000001
(PID.TID 0000.0001)  MDS_READ_FIELD: opening global file: sigma_sst.bin
(PID.TID 0000.0001)  MDS_READ_FIELD: opening global file: m_sst_step.0000000001.data
(PID.TID 0000.0001)  MDS_READ_FIELD: opening global file: labsea_SST_fields_t5
(PID.TID 0000.0001)  MDS_READ_FIELD: opening global file: adm_sst_step.0000000001.data
(PID.TID 0000.0001)  MDS_WRITE_FIELD: it,rec,kS,kL,kH=       1    -4  23   1   1 file=adm_sst_step.0000000001
(PID.TID 0000.0001)  MDS_READ_FIELD: opening global file: sigma_sst.bin
(PID.TID 0000.0001)  MDS_READ_FIELD: opening global file: m_sst_step.0000000001.data
(PID.TID 0000.0001)  MDS_READ_FIELD: opening global file: labsea_SST_fields_t5
(PID.TID 0000.0001)  MDS_READ_FIELD: opening global file: adm_sst_step.0000000001.data
(PID.TID 0000.0001)  MDS_WRITE_FIELD: it,rec,kS,kL,kH=       1    -3  23   1   1 file=adm_sst_step.0000000001
(PID.TID 0000.0001)  MDS_READ_FIELD: opening global file: sigma_sst.bin
(PID.TID 0000.0001)  MDS_READ_FIELD: opening global file: m_sst_step.0000000001.data
(PID.TID 0000.0001)  MDS_READ_FIELD: opening global file: labsea_SST_fields_t5
(PID.TID 0000.0001)  MDS_READ_FIELD: opening global file: adm_sst_step.0000000001.data
(PID.TID 0000.0001)  MDS_WRITE_FIELD: it,rec,kS,kL,kH=       1    -2  23   1   1 file=adm_sst_step.0000000001
(PID.TID 0000.0001)  MDS_READ_FIELD: opening global file: sigma_sst.bin
(PID.TID 0000.0001)  MDS_READ_FIELD: opening global file: m_sst_step.0000000001.data
(PID.TID 0000.0001)  MDS_READ_FIELD: opening global file: labsea_SST_fields_t5
(PID.TID 0000.0001)  MDS_READ_FIELD: opening global file: adm_sst_step.0000000001.data
(PID.TID 0000.0001)  MDS_WRITE_FIELD: it,rec,kS,kL,kH=       1    -1  23   1   1 file=adm_sst_step.0000000001
(PID.TID 0000.0001)  MDS_READ_FIELD: opening global file: adm_sst_step.0000000001.data
(PID.TID 0000.0001)  MDS_WRITE_FIELD: it,rec,kS,kL,kH=       1    -5  23   1   1 file=adm_sst_step.0000000001
(PID.TID 0000.0001) ADREAD:  tid,vid, irec, length, prec(x2)=    39     1     2      672  8 64 fname=tapelev3_1_the_main_loop_etan
(PID.TID 0000.0001) ADREAD:  tid,vid, irec, length, prec(x2)=    39     2     2      672  8 64 fname=tapelev3_2_the_main_loop_taux0
(PID.TID 0000.0001) ADREAD:  tid,vid, irec, length, prec(x2)=    39     3     2      672  8 64 fname=tapelev3_3_the_main_loop_taux1
(PID.TID 0000.0001) ADREAD:  tid,vid, irec, length, prec(x2)=    39     4     2      672  8 64 fname=tapelev3_4_the_main_loop_tauy0
(PID.TID 0000.0001) ADREAD:  tid,vid, irec, length, prec(x2)=    39     5     2      672  8 64 fname=tapelev3_5_the_main_loop_tauy1
(PID.TID 0000.0001) ADREAD:  tid,vid, irec, length, prec(x2)=    39     6     2      672  8 64 fname=tapelev3_6_the_main_loop_qnet0
(PID.TID 0000.0001) ADREAD:  tid,vid, irec, length, prec(x2)=    39     7     2      672  8 64 fname=tapelev3_7_the_main_loop_qnet1
(PID.TID 0000.0001) ADREAD:  tid,vid, irec, length, prec(x2)=    39     8     2      672  8 64 fname=tapelev3_8_the_main_loop_empmr0
(PID.TID 0000.0001) ADREAD:  tid,vid, irec, length, prec(x2)=    39     9     2      672  8 64 fname=tapelev3_9_the_main_loop_empmr1
(PID.TID 0000.0001) ADREAD:  tid,vid, irec, length, prec(x2)=    39    10     2      672  8 64 fname=tapelev3_10_the_main_loop_sst0
(PID.TID 0000.0001) ADREAD:  tid,vid, irec, length, prec(x2)=    39    11     2      672  8 64 fname=tapelev3_11_the_main_loop_sst1
(PID.TID 0000.0001) ADREAD:  tid,vid, irec, length, prec(x2)=    39    12     2      672  8 64 fname=tapelev3_12_the_main_loop_sss0
(PID.TID 0000.0001) ADREAD:  tid,vid, irec, length, prec(x2)=    39    13     2      672  8 64 fname=tapelev3_13_the_main_loop_sss1
(PID.TID 0000.0001) ADREAD:  tid,vid, irec, length, prec(x2)=    39    14     2      672  8 64 fname=tapelev3_14_the_main_loop_saltflux0
(PID.TID 0000.0001) ADREAD:  tid,vid, irec, length, prec(x2)=    39    15     2      672  8 64 fname=tapelev3_15_the_main_loop_saltflux1
(PID.TID 0000.0001) ADREAD:  tid,vid, irec, length, prec(x2)=    39    16     2      672  8 64 fname=tapelev3_16_the_main_loop_qsw0
(PID.TID 0000.0001) ADREAD:  tid,vid, irec, length, prec(x2)=    39    17     2      672  8 64 fname=tapelev3_17_the_main_loop_qsw1
(PID.TID 0000.0001) ADREAD:  tid,vid, irec, length, prec(x2)=    39    18     2      672  8 64 fname=tapelev3_18_the_main_loop_pload0
(PID.TID 0000.0001) ADREAD:  tid,vid, irec, length, prec(x2)=    39    19     2      672  8 64 fname=tapelev3_19_the_main_loop_pload1
(PID.TID 0000.0001) ADREAD:  tid,vid, irec, length, prec(x2)=    39    20     2      672  8 64 fname=tapelev3_20_the_main_loop_etah
(PID.TID 0000.0001) ADREAD:  tid,vid, irec, length, prec(x2)=    39    21     2      672  8 64 fname=tapelev3_21_the_main_loop_detahdt
(PID.TID 0000.0001) ADREAD:  tid,vid, irec, length, prec(x2)=    39    22     2      672  8 64 fname=tapelev3_22_the_main_loop_pmepr
(PID.TID 0000.0001) ADREAD:  tid,vid, irec, length, prec(x2)=    39    23     2    15456  8 64 fname=tapelev3_23_the_main_loop_gtnm1
(PID.TID 0000.0001) ADREAD:  tid,vid, irec, length, prec(x2)=    39    24     2    15456  8 64 fname=tapelev3_24_the_main_loop_gsnm1
(PID.TID 0000.0001) ADREAD:  tid,vid, irec, length, prec(x2)=    39    25     2    15456  8 64 fname=tapelev3_25_the_main_loop_gunm1
(PID.TID 0000.0001) ADREAD:  tid,vid, irec, length, prec(x2)=    39    26     2    15456  8 64 fname=tapelev3_26_the_main_loop_gvnm1
(PID.TID 0000.0001) ADREAD:  tid,vid, irec, length, prec(x2)=    39    27     2    15456  8 64 fname=tapelev3_27_the_main_loop_theta
(PID.TID 0000.0001) ADREAD:  tid,vid, irec, length, prec(x2)=    39    28     2    15456  8 64 fname=tapelev3_28_the_main_loop_salt
(PID.TID 0000.0001) ADREAD:  tid,vid, irec, length, prec(x2)=    39    29     2    15456  8 64 fname=tapelev3_29_the_main_loop_uvel
(PID.TID 0000.0001) ADREAD:  tid,vid, irec, length, prec(x2)=    39    30     2    15456  8 64 fname=tapelev3_30_the_main_loop_vvel
(PID.TID 0000.0001) ADREAD:  tid,vid, irec, length, prec(x2)=    39    31     2    15456  8 64 fname=tapelev3_31_the_main_loop_wvel
(PID.TID 0000.0001) ADREAD:  tid,vid, irec, length, prec(x2)=    39    32     2    15456  8 64 fname=tapelev3_32_the_main_loop_totphihyd
(PID.TID 0000.0001) ADREAD:  tid,vid, irec, length, prec(x2)=    39    35     2    15456  8 64 fname=tapelev3_35_the_main_loop_uveld
(PID.TID 0000.0001) ADREAD:  tid,vid, irec, length, prec(x2)=    39    36     2    15456  8 64 fname=tapelev3_36_the_main_loop_vveld
(PID.TID 0000.0001) ADREAD:  tid,vid, irec, length, prec(x2)=    39    37     2      672  8 64 fname=tapelev3_37_the_main_loop_etanm1
(PID.TID 0000.0001) ADREAD:  tid,vid, irec, length, prec(x2)=    39    38     2    15456  8 64 fname=tapelev3_38_the_main_loop_unm1
(PID.TID 0000.0001) ADREAD:  tid,vid, irec, length, prec(x2)=    39    39     2    15456  8 64 fname=tapelev3_39_the_main_loop_vnm1
(PID.TID 0000.0001) ADREAD:  tid,vid, irec, length, prec(x2)=    39    40     2      672  8 64 fname=tapelev3_40_the_main_loop_areamask0
(PID.TID 0000.0001) ADREAD:  tid,vid, irec, length, prec(x2)=    39    41     2      672  8 64 fname=tapelev3_41_the_main_loop_areamask1
(PID.TID 0000.0001) ADREAD:  tid,vid, irec, length, prec(x2)=    39    42     2      672  8 64 fname=tapelev3_42_the_main_loop_hflux0
(PID.TID 0000.0001) ADREAD:  tid,vid, irec, length, prec(x2)=    39    43     2      672  8 64 fname=tapelev3_43_the_main_loop_hflux1
(PID.TID 0000.0001) ADREAD:  tid,vid, irec, length, prec(x2)=    39    44     2      672  8 64 fname=tapelev3_44_the_main_loop_sflux0
(PID.TID 0000.0001) ADREAD:  tid,vid, irec, length, prec(x2)=    39    45     2      672  8 64 fname=tapelev3_45_the_main_loop_sflux1
(PID.TID 0000.0001) ADREAD:  tid,vid, irec, length, prec(x2)=    39    46     2      672  8 64 fname=tapelev3_46_the_main_loop_ustress0
(PID.TID 0000.0001) ADREAD:  tid,vid, irec, length, prec(x2)=    39    47     2      672  8 64 fname=tapelev3_47_the_main_loop_ustress1
(PID.TID 0000.0001) ADREAD:  tid,vid, irec, length, prec(x2)=    39    48     2      672  8 64 fname=tapelev3_48_the_main_loop_vstress0
(PID.TID 0000.0001) ADREAD:  tid,vid, irec, length, prec(x2)=    39    49     2      672  8 64 fname=tapelev3_49_the_main_loop_vstress1
(PID.TID 0000.0001) ADREAD:  tid,vid, irec, length, prec(x2)=    39    50     2      672  8 64 fname=tapelev3_50_the_main_loop_wspeed0
(PID.TID 0000.0001) ADREAD:  tid,vid, irec, length, prec(x2)=    39    51     2      672  8 64 fname=tapelev3_51_the_main_loop_wspeed1
(PID.TID 0000.0001) ADREAD:  tid,vid, irec, length, prec(x2)=    39    54     2      672  8 64 fname=tapelev3_54_the_main_loop_runoff0
(PID.TID 0000.0001) ADREAD:  tid,vid, irec, length, prec(x2)=    39    55     2      672  8 64 fname=tapelev3_55_the_main_loop_runoff1
(PID.TID 0000.0001) ADREAD:  tid,vid, irec, length, prec(x2)=    39    56     2      672  8 64 fname=tapelev3_56_the_main_loop_apressure0
(PID.TID 0000.0001) ADREAD:  tid,vid, irec, length, prec(x2)=    39    57     2      672  8 64 fname=tapelev3_57_the_main_loop_apressure1
(PID.TID 0000.0001) ADREAD:  tid,vid, irec, length, prec(x2)=    39    58     2      672  8 64 fname=tapelev3_58_the_main_loop_siceload
(PID.TID 0000.0001) ADREAD:  tid,vid, irec, length, prec(x2)=    39    59     2      672  8 64 fname=tapelev3_59_the_main_loop_climsss0
(PID.TID 0000.0001) ADREAD:  tid,vid, irec, length, prec(x2)=    39    60     2      672  8 64 fname=tapelev3_60_the_main_loop_climsss1
(PID.TID 0000.0001) ADREAD:  tid,vid, irec, length, prec(x2)=    39    61     2      672  8 64 fname=tapelev3_61_the_main_loop_climsst0
(PID.TID 0000.0001) ADREAD:  tid,vid, irec, length, prec(x2)=    39    62     2      672  8 64 fname=tapelev3_62_the_main_loop_climsst1
(PID.TID 0000.0001) ADREAD:  tid,vid, irec, length, prec(x2)=    39    63     2      672  8 64 fname=tapelev3_63_the_main_loop_saltflx0
(PID.TID 0000.0001) ADREAD:  tid,vid, irec, length, prec(x2)=    39    64     2      672  8 64 fname=tapelev3_64_the_main_loop_saltflx1
(PID.TID 0000.0001) ADREAD:  tid,vid, irec, length, prec(x2)=    39    65     2      672  8 64 fname=tapelev3_65_the_main_loop_aqh0
(PID.TID 0000.0001) ADREAD:  tid,vid, irec, length, prec(x2)=    39    66     2      672  8 64 fname=tapelev3_66_the_main_loop_aqh1
(PID.TID 0000.0001) ADREAD:  tid,vid, irec, length, prec(x2)=    39    67     2      672  8 64 fname=tapelev3_67_the_main_loop_atemp0
(PID.TID 0000.0001) ADREAD:  tid,vid, irec, length, prec(x2)=    39    68     2      672  8 64 fname=tapelev3_68_the_main_loop_atemp1
(PID.TID 0000.0001) ADREAD:  tid,vid, irec, length, prec(x2)=    39    69     2      672  8 64 fname=tapelev3_69_the_main_loop_precip0
(PID.TID 0000.0001) ADREAD:  tid,vid, irec, length, prec(x2)=    39    70     2      672  8 64 fname=tapelev3_70_the_main_loop_precip1
(PID.TID 0000.0001) ADREAD:  tid,vid, irec, length, prec(x2)=    39    73     2      672  8 64 fname=tapelev3_73_the_main_loop_snowprecip0
(PID.TID 0000.0001) ADREAD:  tid,vid, irec, length, prec(x2)=    39    74     2      672  8 64 fname=tapelev3_74_the_main_loop_snowprecip1
(PID.TID 0000.0001) ADREAD:  tid,vid, irec, length, prec(x2)=    39    75     2      672  8 64 fname=tapelev3_75_the_main_loop_swdown0
(PID.TID 0000.0001) ADREAD:  tid,vid, irec, length, prec(x2)=    39    76     2      672  8 64 fname=tapelev3_76_the_main_loop_swdown1
(PID.TID 0000.0001) ADREAD:  tid,vid, irec, length, prec(x2)=    39    77     2      672  8 64 fname=tapelev3_77_the_main_loop_lwdown0
(PID.TID 0000.0001) ADREAD:  tid,vid, irec, length, prec(x2)=    39    78     2      672  8 64 fname=tapelev3_78_the_main_loop_lwdown1
(PID.TID 0000.0001) ADREAD:  tid,vid, irec, length, prec(x2)=    39    79     2      672  8 64 fname=tapelev3_79_the_main_loop_uwind0
(PID.TID 0000.0001) ADREAD:  tid,vid, irec, length, prec(x2)=    39    80     2      672  8 64 fname=tapelev3_80_the_main_loop_uwind1
(PID.TID 0000.0001) ADREAD:  tid,vid, irec, length, prec(x2)=    39    81     2      672  8 64 fname=tapelev3_81_the_main_loop_vwind0
(PID.TID 0000.0001) ADREAD:  tid,vid, irec, length, prec(x2)=    39    82     2      672  8 64 fname=tapelev3_82_the_main_loop_vwind1
(PID.TID 0000.0001) ADREAD:  tid,vid, irec, length, prec(x2)=    39    83     2     6048  8 64 fname=tapelev3_83_the_main_loop_xx_gentim2d
(PID.TID 0000.0001) ADREAD:  tid,vid, irec, length, prec(x2)=    39    84     2     6048  8 64 fname=tapelev3_84_the_main_loop_xx_gentim2d0
(PID.TID 0000.0001) ADREAD:  tid,vid, irec, length, prec(x2)=    39    85     2     6048  8 64 fname=tapelev3_85_the_main_loop_xx_gentim2d1
(PID.TID 0000.0001) ADREAD:  tid,vid, irec, length, prec(x2)=    39    87     2      672  8 64 fname=tapelev3_87_the_main_loop_phihydlow
(PID.TID 0000.0001) ADREAD:  tid,vid, irec, length, prec(x2)=    39    88     2      672  8 64 fname=tapelev3_88_the_main_loop_area
(PID.TID 0000.0001) ADREAD:  tid,vid, irec, length, prec(x2)=    39    89     2      672  8 64 fname=tapelev3_89_the_main_loop_heff
(PID.TID 0000.0001) ADREAD:  tid,vid, irec, length, prec(x2)=    39    90     2      672  8 64 fname=tapelev3_90_the_main_loop_hsnow
(PID.TID 0000.0001) ADREAD:  tid,vid, irec, length, prec(x2)=    39    92     2      672  8 64 fname=tapelev3_92_the_main_loop_uice
(PID.TID 0000.0001) ADREAD:  tid,vid, irec, length, prec(x2)=    39    93     2      672  8 64 fname=tapelev3_93_the_main_loop_vice
(PID.TID 0000.0001) ADREAD:  tid,vid, irec, length, prec(x2)=    39    96     2     4704  8 64 fname=tapelev3_96_the_main_loop_tices
(PID.TID 0000.0001) ADREAD:  tid,vid, irec, length, prec(x2)=    39    97     2      672  8 64 fname=tapelev3_97_the_main_loop_dwatn
(PID.TID 0000.0001) ADREAD:  tid,vid, irec, length, prec(x2)=    39    98     2      672  8 64 fname=tapelev3_98_the_main_loop_stressdivergencex
(PID.TID 0000.0001) ADREAD:  tid,vid, irec, length, prec(x2)=    39    99     2      672  8 64 fname=tapelev3_99_the_main_loop_stressdivergencey
(PID.TID 0000.0001) ADREAD:  tid,vid, irec, length, prec(x2)=    39   100     2      672  8 64 fname=tapelev3_100_the_main_loop_seaice_sigma1
(PID.TID 0000.0001) ADREAD:  tid,vid, irec, length, prec(x2)=    39   101     2      672  8 64 fname=tapelev3_101_the_main_loop_seaice_sigma2
(PID.TID 0000.0001) ADREAD:  tid,vid, irec, length, prec(x2)=    39   102     2      672  8 64 fname=tapelev3_102_the_main_loop_seaice_sigma12
(PID.TID 0000.0001) ADREAD:  tid,vid, irec, length, prec(x2)=    39   103     2      672  8 64 fname=tapelev3_103_the_main_loop_hsalt
(PID.TID 0000.0001) ADWRITE: tid,vid, irec, length, prec(x2)=    41     1     1      672  8 64 fname=tapelev2_1_the_main_loop_etan
(PID.TID 0000.0001) ADWRITE:  tapeFileCounter =     1
(PID.TID 0000.0001) ADWRITE: tid,vid, irec, length, prec(x2)=    41     2     1      672  8 64 fname=tapelev2_2_the_main_loop_taux0
(PID.TID 0000.0001) ADWRITE:  tapeFileCounter =     2
(PID.TID 0000.0001) ADWRITE: tid,vid, irec, length, prec(x2)=    41     3     1      672  8 64 fname=tapelev2_3_the_main_loop_taux1
(PID.TID 0000.0001) ADWRITE:  tapeFileCounter =     3
(PID.TID 0000.0001) ADWRITE: tid,vid, irec, length, prec(x2)=    41     4     1      672  8 64 fname=tapelev2_4_the_main_loop_tauy0
(PID.TID 0000.0001) ADWRITE:  tapeFileCounter =     4
(PID.TID 0000.0001) ADWRITE: tid,vid, irec, length, prec(x2)=    41     5     1      672  8 64 fname=tapelev2_5_the_main_loop_tauy1
(PID.TID 0000.0001) ADWRITE:  tapeFileCounter =     5
(PID.TID 0000.0001) ADWRITE: tid,vid, irec, length, prec(x2)=    41     6     1      672  8 64 fname=tapelev2_6_the_main_loop_qnet0
(PID.TID 0000.0001) ADWRITE:  tapeFileCounter =     6
(PID.TID 0000.0001) ADWRITE: tid,vid, irec, length, prec(x2)=    41     7     1      672  8 64 fname=tapelev2_7_the_main_loop_qnet1
(PID.TID 0000.0001) ADWRITE:  tapeFileCounter =     7
(PID.TID 0000.0001) ADWRITE: tid,vid, irec, length, prec(x2)=    41     8     1      672  8 64 fname=tapelev2_8_the_main_loop_empmr0
(PID.TID 0000.0001) ADWRITE:  tapeFileCounter =     8
(PID.TID 0000.0001) ADWRITE: tid,vid, irec, length, prec(x2)=    41     9     1      672  8 64 fname=tapelev2_9_the_main_loop_empmr1
(PID.TID 0000.0001) ADWRITE:  tapeFileCounter =     9
(PID.TID 0000.0001) ADWRITE: tid,vid, irec, length, prec(x2)=    41    10     1      672  8 64 fname=tapelev2_10_the_main_loop_sst0
(PID.TID 0000.0001) ADWRITE:  tapeFileCounter =    10
(PID.TID 0000.0001) ADWRITE: tid,vid, irec, length, prec(x2)=    41    11     1      672  8 64 fname=tapelev2_11_the_main_loop_sst1
(PID.TID 0000.0001) ADWRITE:  tapeFileCounter =    11
(PID.TID 0000.0001) ADWRITE: tid,vid, irec, length, prec(x2)=    41    12     1      672  8 64 fname=tapelev2_12_the_main_loop_sss0
(PID.TID 0000.0001) ADWRITE:  tapeFileCounter =    12
(PID.TID 0000.0001) ADWRITE: tid,vid, irec, length, prec(x2)=    41    13     1      672  8 64 fname=tapelev2_13_the_main_loop_sss1
(PID.TID 0000.0001) ADWRITE:  tapeFileCounter =    13
(PID.TID 0000.0001) ADWRITE: tid,vid, irec, length, prec(x2)=    41    14     1      672  8 64 fname=tapelev2_14_the_main_loop_saltflux0
(PID.TID 0000.0001) ADWRITE:  tapeFileCounter =    14
(PID.TID 0000.0001) ADWRITE: tid,vid, irec, length, prec(x2)=    41    15     1      672  8 64 fname=tapelev2_15_the_main_loop_saltflux1
(PID.TID 0000.0001) ADWRITE:  tapeFileCounter =    15
(PID.TID 0000.0001) ADWRITE: tid,vid, irec, length, prec(x2)=    41    16     1      672  8 64 fname=tapelev2_16_the_main_loop_qsw0
(PID.TID 0000.0001) ADWRITE:  tapeFileCounter =    16
(PID.TID 0000.0001) ADWRITE: tid,vid, irec, length, prec(x2)=    41    17     1      672  8 64 fname=tapelev2_17_the_main_loop_qsw1
(PID.TID 0000.0001) ADWRITE:  tapeFileCounter =    17
(PID.TID 0000.0001) ADWRITE: tid,vid, irec, length, prec(x2)=    41    18     1      672  8 64 fname=tapelev2_18_the_main_loop_pload0
(PID.TID 0000.0001) ADWRITE:  tapeFileCounter =    18
(PID.TID 0000.0001) ADWRITE: tid,vid, irec, length, prec(x2)=    41    19     1      672  8 64 fname=tapelev2_19_the_main_loop_pload1
(PID.TID 0000.0001) ADWRITE:  tapeFileCounter =    19
(PID.TID 0000.0001) ADWRITE: tid,vid, irec, length, prec(x2)=    41    20     1      672  8 64 fname=tapelev2_20_the_main_loop_etah
(PID.TID 0000.0001) ADWRITE:  tapeFileCounter =    20
(PID.TID 0000.0001) ADWRITE: tid,vid, irec, length, prec(x2)=    41    21     1      672  8 64 fname=tapelev2_21_the_main_loop_detahdt
(PID.TID 0000.0001) ADWRITE:  tapeFileCounter =    21
(PID.TID 0000.0001) ADWRITE: tid,vid, irec, length, prec(x2)=    41    22     1      672  8 64 fname=tapelev2_22_the_main_loop_pmepr
(PID.TID 0000.0001) ADWRITE:  tapeFileCounter =    22
(PID.TID 0000.0001) ADWRITE: tid,vid, irec, length, prec(x2)=    41    23     1    15456  8 64 fname=tapelev2_23_the_main_loop_gtnm1
(PID.TID 0000.0001) ADWRITE:  tapeFileCounter =    23
(PID.TID 0000.0001) ADWRITE:  tapeFileCounter =    24
(PID.TID 0000.0001) ADWRITE:  tapeFileCounter =    25
(PID.TID 0000.0001) ADWRITE:  tapeFileCounter =    26
(PID.TID 0000.0001) ADWRITE:  tapeFileCounter =    27
(PID.TID 0000.0001) ADWRITE:  tapeFileCounter =    28
(PID.TID 0000.0001) ADWRITE:  tapeFileCounter =    29
(PID.TID 0000.0001) ADWRITE:  tapeFileCounter =    30
(PID.TID 0000.0001) ADWRITE:  tapeFileCounter =    31
(PID.TID 0000.0001) ADWRITE:  tapeFileCounter =    32
(PID.TID 0000.0001) ADWRITE:  tapeFileCounter =    33
(PID.TID 0000.0001) ADWRITE:  tapeFileCounter =    34
(PID.TID 0000.0001) ADWRITE:  tapeFileCounter =    35
(PID.TID 0000.0001) ADWRITE:  tapeFileCounter =    36
(PID.TID 0000.0001) ADWRITE:  tapeFileCounter =    37
(PID.TID 0000.0001) ADWRITE:  tapeFileCounter =    38
(PID.TID 0000.0001) ADWRITE:  tapeFileCounter =    39
(PID.TID 0000.0001) ADWRITE:  tapeFileCounter =    40
(PID.TID 0000.0001) ADWRITE:  tapeFileCounter =    41
(PID.TID 0000.0001) ADWRITE:  tapeFileCounter =    42
(PID.TID 0000.0001) ADWRITE:  tapeFileCounter =    43
(PID.TID 0000.0001) ADWRITE:  tapeFileCounter =    44
(PID.TID 0000.0001) ADWRITE:  tapeFileCounter =    45
(PID.TID 0000.0001) ADWRITE: tid,vid, irec, length, prec(x2)=    41    24     1    15456  8 64 fname=tapelev2_24_the_main_loop_gsnm1
(PID.TID 0000.0001) ADWRITE:  tapeFileCounter =    46
(PID.TID 0000.0001) ADWRITE:  tapeFileCounter =    47
(PID.TID 0000.0001) ADWRITE:  tapeFileCounter =    48
(PID.TID 0000.0001) ADWRITE:  tapeFileCounter =    49
(PID.TID 0000.0001) ADWRITE:  tapeFileCounter =    50
(PID.TID 0000.0001) ADWRITE:  tapeFileCounter =    51
(PID.TID 0000.0001) ADWRITE:  tapeFileCounter =    52
(PID.TID 0000.0001) ADWRITE:  tapeFileCounter =    53
(PID.TID 0000.0001) ADWRITE:  tapeFileCounter =    54
(PID.TID 0000.0001) ADWRITE:  tapeFileCounter =    55
(PID.TID 0000.0001) ADWRITE:  tapeFileCounter =    56
(PID.TID 0000.0001) ADWRITE:  tapeFileCounter =    57
(PID.TID 0000.0001) ADWRITE:  tapeFileCounter =    58
(PID.TID 0000.0001) ADWRITE:  tapeFileCounter =    59
(PID.TID 0000.0001) ADWRITE:  tapeFileCounter =    60
(PID.TID 0000.0001) ADWRITE:  tapeFileCounter =    61
(PID.TID 0000.0001) ADWRITE:  tapeFileCounter =    62
(PID.TID 0000.0001) ADWRITE:  tapeFileCounter =    63
(PID.TID 0000.0001) ADWRITE:  tapeFileCounter =    64
(PID.TID 0000.0001) ADWRITE:  tapeFileCounter =    65
(PID.TID 0000.0001) ADWRITE:  tapeFileCounter =    66
(PID.TID 0000.0001) ADWRITE:  tapeFileCounter =    67
(PID.TID 0000.0001) ADWRITE:  tapeFileCounter =    68
(PID.TID 0000.0001) ADWRITE: tid,vid, irec, length, prec(x2)=    41    25     1    15456  8 64 fname=tapelev2_25_the_main_loop_gunm1
(PID.TID 0000.0001) ADWRITE:  tapeFileCounter =    69
(PID.TID 0000.0001) ADWRITE:  tapeFileCounter =    70
(PID.TID 0000.0001) ADWRITE:  tapeFileCounter =    71
(PID.TID 0000.0001) ADWRITE:  tapeFileCounter =    72
(PID.TID 0000.0001) ADWRITE:  tapeFileCounter =    73
(PID.TID 0000.0001) ADWRITE:  tapeFileCounter =    74
(PID.TID 0000.0001) ADWRITE:  tapeFileCounter =    75
(PID.TID 0000.0001) ADWRITE:  tapeFileCounter =    76
(PID.TID 0000.0001) ADWRITE:  tapeFileCounter =    77
(PID.TID 0000.0001) ADWRITE:  tapeFileCounter =    78
(PID.TID 0000.0001) ADWRITE:  tapeFileCounter =    79
(PID.TID 0000.0001) ADWRITE:  tapeFileCounter =    80
(PID.TID 0000.0001) ADWRITE:  tapeFileCounter =    81
(PID.TID 0000.0001) ADWRITE:  tapeFileCounter =    82
(PID.TID 0000.0001) ADWRITE:  tapeFileCounter =    83
(PID.TID 0000.0001) ADWRITE:  tapeFileCounter =    84
(PID.TID 0000.0001) ADWRITE:  tapeFileCounter =    85
(PID.TID 0000.0001) ADWRITE:  tapeFileCounter =    86
(PID.TID 0000.0001) ADWRITE:  tapeFileCounter =    87
(PID.TID 0000.0001) ADWRITE:  tapeFileCounter =    88
(PID.TID 0000.0001) ADWRITE:  tapeFileCounter =    89
(PID.TID 0000.0001) ADWRITE:  tapeFileCounter =    90
(PID.TID 0000.0001) ADWRITE:  tapeFileCounter =    91
(PID.TID 0000.0001) ADWRITE: tid,vid, irec, length, prec(x2)=    41    26     1    15456  8 64 fname=tapelev2_26_the_main_loop_gvnm1
(PID.TID 0000.0001) ADWRITE:  tapeFileCounter =    92
(PID.TID 0000.0001) ADWRITE:  tapeFileCounter =    93
(PID.TID 0000.0001) ADWRITE:  tapeFileCounter =    94
(PID.TID 0000.0001) ADWRITE:  tapeFileCounter =    95
(PID.TID 0000.0001) ADWRITE:  tapeFileCounter =    96
(PID.TID 0000.0001) ADWRITE:  tapeFileCounter =    97
(PID.TID 0000.0001) ADWRITE:  tapeFileCounter =    98
(PID.TID 0000.0001) ADWRITE:  tapeFileCounter =    99
(PID.TID 0000.0001) ADWRITE:  tapeFileCounter =   100
(PID.TID 0000.0001) ADWRITE:  tapeFileCounter =   101
(PID.TID 0000.0001) ADWRITE:  tapeFileCounter =   102
(PID.TID 0000.0001) ADWRITE:  tapeFileCounter =   103
(PID.TID 0000.0001) ADWRITE:  tapeFileCounter =   104
(PID.TID 0000.0001) ADWRITE:  tapeFileCounter =   105
(PID.TID 0000.0001) ADWRITE:  tapeFileCounter =   106
(PID.TID 0000.0001) ADWRITE:  tapeFileCounter =   107
(PID.TID 0000.0001) ADWRITE:  tapeFileCounter =   108
(PID.TID 0000.0001) ADWRITE:  tapeFileCounter =   109
(PID.TID 0000.0001) ADWRITE:  tapeFileCounter =   110
(PID.TID 0000.0001) ADWRITE:  tapeFileCounter =   111
(PID.TID 0000.0001) ADWRITE:  tapeFileCounter =   112
(PID.TID 0000.0001) ADWRITE:  tapeFileCounter =   113
(PID.TID 0000.0001) ADWRITE:  tapeFileCounter =   114
(PID.TID 0000.0001) ADWRITE: tid,vid, irec, length, prec(x2)=    41    27     1    15456  8 64 fname=tapelev2_27_the_main_loop_theta
(PID.TID 0000.0001) ADWRITE:  tapeFileCounter =   115
(PID.TID 0000.0001) ADWRITE:  tapeFileCounter =   116
(PID.TID 0000.0001) ADWRITE:  tapeFileCounter =   117
(PID.TID 0000.0001) ADWRITE:  tapeFileCounter =   118
(PID.TID 0000.0001) ADWRITE:  tapeFileCounter =   119
(PID.TID 0000.0001) ADWRITE:  tapeFileCounter =   120
(PID.TID 0000.0001) ADWRITE:  tapeFileCounter =   121
(PID.TID 0000.0001) ADWRITE:  tapeFileCounter =   122
(PID.TID 0000.0001) ADWRITE:  tapeFileCounter =   123
(PID.TID 0000.0001) ADWRITE:  tapeFileCounter =   124
(PID.TID 0000.0001) ADWRITE:  tapeFileCounter =   125
(PID.TID 0000.0001) ADWRITE:  tapeFileCounter =   126
(PID.TID 0000.0001) ADWRITE:  tapeFileCounter =   127
(PID.TID 0000.0001) ADWRITE:  tapeFileCounter =   128
(PID.TID 0000.0001) ADWRITE:  tapeFileCounter =   129
(PID.TID 0000.0001) ADWRITE:  tapeFileCounter =   130
(PID.TID 0000.0001) ADWRITE:  tapeFileCounter =   131
(PID.TID 0000.0001) ADWRITE:  tapeFileCounter =   132
(PID.TID 0000.0001) ADWRITE:  tapeFileCounter =   133
(PID.TID 0000.0001) ADWRITE:  tapeFileCounter =   134
(PID.TID 0000.0001) ADWRITE:  tapeFileCounter =   135
(PID.TID 0000.0001) ADWRITE:  tapeFileCounter =   136
(PID.TID 0000.0001) ADWRITE:  tapeFileCounter =   137
(PID.TID 0000.0001) ADWRITE: tid,vid, irec, length, prec(x2)=    41    28     1    15456  8 64 fname=tapelev2_28_the_main_loop_salt
(PID.TID 0000.0001) ADWRITE:  tapeFileCounter =   138
(PID.TID 0000.0001) ADWRITE:  tapeFileCounter =   139
(PID.TID 0000.0001) ADWRITE:  tapeFileCounter =   140
(PID.TID 0000.0001) ADWRITE:  tapeFileCounter =   141
(PID.TID 0000.0001) ADWRITE:  tapeFileCounter =   142
(PID.TID 0000.0001) ADWRITE:  tapeFileCounter =   143
(PID.TID 0000.0001) ADWRITE:  tapeFileCounter =   144
(PID.TID 0000.0001) ADWRITE:  tapeFileCounter =   145
(PID.TID 0000.0001) ADWRITE:  tapeFileCounter =   146
(PID.TID 0000.0001) ADWRITE:  tapeFileCounter =   147
(PID.TID 0000.0001) ADWRITE:  tapeFileCounter =   148
(PID.TID 0000.0001) ADWRITE:  tapeFileCounter =   149
(PID.TID 0000.0001) ADWRITE:  tapeFileCounter =   150
(PID.TID 0000.0001) ADWRITE:  tapeFileCounter =   151
(PID.TID 0000.0001) ADWRITE:  tapeFileCounter =   152
(PID.TID 0000.0001) ADWRITE:  tapeFileCounter =   153
(PID.TID 0000.0001) ADWRITE:  tapeFileCounter =   154
(PID.TID 0000.0001) ADWRITE:  tapeFileCounter =   155
(PID.TID 0000.0001) ADWRITE:  tapeFileCounter =   156
(PID.TID 0000.0001) ADWRITE:  tapeFileCounter =   157
(PID.TID 0000.0001) ADWRITE:  tapeFileCounter =   158
(PID.TID 0000.0001) ADWRITE:  tapeFileCounter =   159
(PID.TID 0000.0001) ADWRITE:  tapeFileCounter =   160
(PID.TID 0000.0001) ADWRITE: tid,vid, irec, length, prec(x2)=    41    29     1    15456  8 64 fname=tapelev2_29_the_main_loop_uvel
(PID.TID 0000.0001) ADWRITE:  tapeFileCounter =   161
(PID.TID 0000.0001) ADWRITE:  tapeFileCounter =   162
(PID.TID 0000.0001) ADWRITE:  tapeFileCounter =   163
(PID.TID 0000.0001) ADWRITE:  tapeFileCounter =   164
(PID.TID 0000.0001) ADWRITE:  tapeFileCounter =   165
(PID.TID 0000.0001) ADWRITE:  tapeFileCounter =   166
(PID.TID 0000.0001) ADWRITE:  tapeFileCounter =   167
(PID.TID 0000.0001) ADWRITE:  tapeFileCounter =   168
(PID.TID 0000.0001) ADWRITE:  tapeFileCounter =   169
(PID.TID 0000.0001) ADWRITE:  tapeFileCounter =   170
(PID.TID 0000.0001) ADWRITE:  tapeFileCounter =   171
(PID.TID 0000.0001) ADWRITE:  tapeFileCounter =   172
(PID.TID 0000.0001) ADWRITE:  tapeFileCounter =   173
(PID.TID 0000.0001) ADWRITE:  tapeFileCounter =   174
(PID.TID 0000.0001) ADWRITE:  tapeFileCounter =   175
(PID.TID 0000.0001) ADWRITE:  tapeFileCounter =   176
(PID.TID 0000.0001) ADWRITE:  tapeFileCounter =   177
(PID.TID 0000.0001) ADWRITE:  tapeFileCounter =   178
(PID.TID 0000.0001) ADWRITE:  tapeFileCounter =   179
(PID.TID 0000.0001) ADWRITE:  tapeFileCounter =   180
(PID.TID 0000.0001) ADWRITE:  tapeFileCounter =   181
(PID.TID 0000.0001) ADWRITE:  tapeFileCounter =   182
(PID.TID 0000.0001) ADWRITE:  tapeFileCounter =   183
(PID.TID 0000.0001) ADWRITE: tid,vid, irec, length, prec(x2)=    41    30     1    15456  8 64 fname=tapelev2_30_the_main_loop_vvel
(PID.TID 0000.0001) ADWRITE:  tapeFileCounter =   184
(PID.TID 0000.0001) ADWRITE:  tapeFileCounter =   185
(PID.TID 0000.0001) ADWRITE:  tapeFileCounter =   186
(PID.TID 0000.0001) ADWRITE:  tapeFileCounter =   187
(PID.TID 0000.0001) ADWRITE:  tapeFileCounter =   188
(PID.TID 0000.0001) ADWRITE:  tapeFileCounter =   189
(PID.TID 0000.0001) ADWRITE:  tapeFileCounter =   190
(PID.TID 0000.0001) ADWRITE:  tapeFileCounter =   191
(PID.TID 0000.0001) ADWRITE:  tapeFileCounter =   192
(PID.TID 0000.0001) ADWRITE:  tapeFileCounter =   193
(PID.TID 0000.0001) ADWRITE:  tapeFileCounter =   194
(PID.TID 0000.0001) ADWRITE:  tapeFileCounter =   195
(PID.TID 0000.0001) ADWRITE:  tapeFileCounter =   196
(PID.TID 0000.0001) ADWRITE:  tapeFileCounter =   197
(PID.TID 0000.0001) ADWRITE:  tapeFileCounter =   198
(PID.TID 0000.0001) ADWRITE:  tapeFileCounter =   199
(PID.TID 0000.0001) ADWRITE:  tapeFileCounter =   200
(PID.TID 0000.0001) ADWRITE:  tapeFileCounter =   201
(PID.TID 0000.0001) ADWRITE:  tapeFileCounter =   202
(PID.TID 0000.0001) ADWRITE:  tapeFileCounter =   203
(PID.TID 0000.0001) ADWRITE:  tapeFileCounter =   204
(PID.TID 0000.0001) ADWRITE:  tapeFileCounter =   205
(PID.TID 0000.0001) ADWRITE:  tapeFileCounter =   206
(PID.TID 0000.0001) ADWRITE: tid,vid, irec, length, prec(x2)=    41    31     1    15456  8 64 fname=tapelev2_31_the_main_loop_wvel
(PID.TID 0000.0001) ADWRITE:  tapeFileCounter =   207
(PID.TID 0000.0001) ADWRITE:  tapeFileCounter =   208
(PID.TID 0000.0001) ADWRITE:  tapeFileCounter =   209
(PID.TID 0000.0001) ADWRITE:  tapeFileCounter =   210
(PID.TID 0000.0001) ADWRITE:  tapeFileCounter =   211
(PID.TID 0000.0001) ADWRITE:  tapeFileCounter =   212
(PID.TID 0000.0001) ADWRITE:  tapeFileCounter =   213
(PID.TID 0000.0001) ADWRITE:  tapeFileCounter =   214
(PID.TID 0000.0001) ADWRITE:  tapeFileCounter =   215
(PID.TID 0000.0001) ADWRITE:  tapeFileCounter =   216
(PID.TID 0000.0001) ADWRITE:  tapeFileCounter =   217
(PID.TID 0000.0001) ADWRITE:  tapeFileCounter =   218
(PID.TID 0000.0001) ADWRITE:  tapeFileCounter =   219
(PID.TID 0000.0001) ADWRITE:  tapeFileCounter =   220
(PID.TID 0000.0001) ADWRITE:  tapeFileCounter =   221
(PID.TID 0000.0001) ADWRITE:  tapeFileCounter =   222
(PID.TID 0000.0001) ADWRITE:  tapeFileCounter =   223
(PID.TID 0000.0001) ADWRITE:  tapeFileCounter =   224
(PID.TID 0000.0001) ADWRITE:  tapeFileCounter =   225
(PID.TID 0000.0001) ADWRITE:  tapeFileCounter =   226
(PID.TID 0000.0001) ADWRITE:  tapeFileCounter =   227
(PID.TID 0000.0001) ADWRITE:  tapeFileCounter =   228
(PID.TID 0000.0001) ADWRITE:  tapeFileCounter =   229
(PID.TID 0000.0001) ADWRITE: tid,vid, irec, length, prec(x2)=    41    32     1    15456  8 64 fname=tapelev2_32_the_main_loop_totphihyd
(PID.TID 0000.0001) ADWRITE:  tapeFileCounter =   230
(PID.TID 0000.0001) ADWRITE:  tapeFileCounter =   231
(PID.TID 0000.0001) ADWRITE:  tapeFileCounter =   232
(PID.TID 0000.0001) ADWRITE:  tapeFileCounter =   233
(PID.TID 0000.0001) ADWRITE:  tapeFileCounter =   234
(PID.TID 0000.0001) ADWRITE:  tapeFileCounter =   235
(PID.TID 0000.0001) ADWRITE:  tapeFileCounter =   236
(PID.TID 0000.0001) ADWRITE:  tapeFileCounter =   237
(PID.TID 0000.0001) ADWRITE:  tapeFileCounter =   238
(PID.TID 0000.0001) ADWRITE:  tapeFileCounter =   239
(PID.TID 0000.0001) ADWRITE:  tapeFileCounter =   240
(PID.TID 0000.0001) ADWRITE:  tapeFileCounter =   241
(PID.TID 0000.0001) ADWRITE:  tapeFileCounter =   242
(PID.TID 0000.0001) ADWRITE:  tapeFileCounter =   243
(PID.TID 0000.0001) ADWRITE:  tapeFileCounter =   244
(PID.TID 0000.0001) ADWRITE:  tapeFileCounter =   245
(PID.TID 0000.0001) ADWRITE:  tapeFileCounter =   246
(PID.TID 0000.0001) ADWRITE:  tapeFileCounter =   247
(PID.TID 0000.0001) ADWRITE:  tapeFileCounter =   248
(PID.TID 0000.0001) ADWRITE:  tapeFileCounter =   249
(PID.TID 0000.0001) ADWRITE:  tapeFileCounter =   250
(PID.TID 0000.0001) ADWRITE:  tapeFileCounter =   251
(PID.TID 0000.0001) ADWRITE:  tapeFileCounter =   252
(PID.TID 0000.0001) ADWRITE: tid,vid, irec, length, prec(x2)=    41    35     1    15456  8 64 fname=tapelev2_35_the_main_loop_uveld
(PID.TID 0000.0001) ADWRITE:  tapeFileCounter =   253
(PID.TID 0000.0001) ADWRITE:  tapeFileCounter =   254
(PID.TID 0000.0001) ADWRITE:  tapeFileCounter =   255
(PID.TID 0000.0001) ADWRITE:  tapeFileCounter =   256
(PID.TID 0000.0001) ADWRITE:  tapeFileCounter =   257
(PID.TID 0000.0001) ADWRITE:  tapeFileCounter =   258
(PID.TID 0000.0001) ADWRITE:  tapeFileCounter =   259
(PID.TID 0000.0001) ADWRITE:  tapeFileCounter =   260
(PID.TID 0000.0001) ADWRITE:  tapeFileCounter =   261
(PID.TID 0000.0001) ADWRITE:  tapeFileCounter =   262
(PID.TID 0000.0001) ADWRITE:  tapeFileCounter =   263
(PID.TID 0000.0001) ADWRITE:  tapeFileCounter =   264
(PID.TID 0000.0001) ADWRITE:  tapeFileCounter =   265
(PID.TID 0000.0001) ADWRITE:  tapeFileCounter =   266
(PID.TID 0000.0001) ADWRITE:  tapeFileCounter =   267
(PID.TID 0000.0001) ADWRITE:  tapeFileCounter =   268
(PID.TID 0000.0001) ADWRITE:  tapeFileCounter =   269
(PID.TID 0000.0001) ADWRITE:  tapeFileCounter =   270
(PID.TID 0000.0001) ADWRITE:  tapeFileCounter =   271
(PID.TID 0000.0001) ADWRITE:  tapeFileCounter =   272
(PID.TID 0000.0001) ADWRITE:  tapeFileCounter =   273
(PID.TID 0000.0001) ADWRITE:  tapeFileCounter =   274
(PID.TID 0000.0001) ADWRITE:  tapeFileCounter =   275
(PID.TID 0000.0001) ADWRITE: tid,vid, irec, length, prec(x2)=    41    36     1    15456  8 64 fname=tapelev2_36_the_main_loop_vveld
(PID.TID 0000.0001) ADWRITE:  tapeFileCounter =   276
(PID.TID 0000.0001) ADWRITE:  tapeFileCounter =   277
(PID.TID 0000.0001) ADWRITE:  tapeFileCounter =   278
(PID.TID 0000.0001) ADWRITE:  tapeFileCounter =   279
(PID.TID 0000.0001) ADWRITE:  tapeFileCounter =   280
(PID.TID 0000.0001) ADWRITE:  tapeFileCounter =   281
(PID.TID 0000.0001) ADWRITE:  tapeFileCounter =   282
(PID.TID 0000.0001) ADWRITE:  tapeFileCounter =   283
(PID.TID 0000.0001) ADWRITE:  tapeFileCounter =   284
(PID.TID 0000.0001) ADWRITE:  tapeFileCounter =   285
(PID.TID 0000.0001) ADWRITE:  tapeFileCounter =   286
(PID.TID 0000.0001) ADWRITE:  tapeFileCounter =   287
(PID.TID 0000.0001) ADWRITE:  tapeFileCounter =   288
(PID.TID 0000.0001) ADWRITE:  tapeFileCounter =   289
(PID.TID 0000.0001) ADWRITE:  tapeFileCounter =   290
(PID.TID 0000.0001) ADWRITE:  tapeFileCounter =   291
(PID.TID 0000.0001) ADWRITE:  tapeFileCounter =   292
(PID.TID 0000.0001) ADWRITE:  tapeFileCounter =   293
(PID.TID 0000.0001) ADWRITE:  tapeFileCounter =   294
(PID.TID 0000.0001) ADWRITE:  tapeFileCounter =   295
(PID.TID 0000.0001) ADWRITE:  tapeFileCounter =   296
(PID.TID 0000.0001) ADWRITE:  tapeFileCounter =   297
(PID.TID 0000.0001) ADWRITE:  tapeFileCounter =   298
(PID.TID 0000.0001) ADWRITE: tid,vid, irec, length, prec(x2)=    41    37     1      672  8 64 fname=tapelev2_37_the_main_loop_etanm1
(PID.TID 0000.0001) ADWRITE:  tapeFileCounter =   299
(PID.TID 0000.0001) ADWRITE: tid,vid, irec, length, prec(x2)=    41    38     1    15456  8 64 fname=tapelev2_38_the_main_loop_unm1
(PID.TID 0000.0001) ADWRITE:  tapeFileCounter =   300
(PID.TID 0000.0001) ADWRITE:  tapeFileCounter =   301
(PID.TID 0000.0001) ADWRITE:  tapeFileCounter =   302
(PID.TID 0000.0001) ADWRITE:  tapeFileCounter =   303
(PID.TID 0000.0001) ADWRITE:  tapeFileCounter =   304
(PID.TID 0000.0001) ADWRITE:  tapeFileCounter =   305
(PID.TID 0000.0001) ADWRITE:  tapeFileCounter =   306
(PID.TID 0000.0001) ADWRITE:  tapeFileCounter =   307
(PID.TID 0000.0001) ADWRITE:  tapeFileCounter =   308
(PID.TID 0000.0001) ADWRITE:  tapeFileCounter =   309
(PID.TID 0000.0001) ADWRITE:  tapeFileCounter =   310
(PID.TID 0000.0001) ADWRITE:  tapeFileCounter =   311
(PID.TID 0000.0001) ADWRITE:  tapeFileCounter =   312
(PID.TID 0000.0001) ADWRITE:  tapeFileCounter =   313
(PID.TID 0000.0001) ADWRITE:  tapeFileCounter =   314
(PID.TID 0000.0001) ADWRITE:  tapeFileCounter =   315
(PID.TID 0000.0001) ADWRITE:  tapeFileCounter =   316
(PID.TID 0000.0001) ADWRITE:  tapeFileCounter =   317
(PID.TID 0000.0001) ADWRITE:  tapeFileCounter =   318
(PID.TID 0000.0001) ADWRITE:  tapeFileCounter =   319
(PID.TID 0000.0001) ADWRITE:  tapeFileCounter =   320
(PID.TID 0000.0001) ADWRITE:  tapeFileCounter =   321
(PID.TID 0000.0001) ADWRITE:  tapeFileCounter =   322
(PID.TID 0000.0001) ADWRITE: tid,vid, irec, length, prec(x2)=    41    39     1    15456  8 64 fname=tapelev2_39_the_main_loop_vnm1
(PID.TID 0000.0001) ADWRITE:  tapeFileCounter =   323
(PID.TID 0000.0001) ADWRITE:  tapeFileCounter =   324
(PID.TID 0000.0001) ADWRITE:  tapeFileCounter =   325
(PID.TID 0000.0001) ADWRITE:  tapeFileCounter =   326
(PID.TID 0000.0001) ADWRITE:  tapeFileCounter =   327
(PID.TID 0000.0001) ADWRITE:  tapeFileCounter =   328
(PID.TID 0000.0001) ADWRITE:  tapeFileCounter =   329
(PID.TID 0000.0001) ADWRITE:  tapeFileCounter =   330
(PID.TID 0000.0001) ADWRITE:  tapeFileCounter =   331
(PID.TID 0000.0001) ADWRITE:  tapeFileCounter =   332
(PID.TID 0000.0001) ADWRITE:  tapeFileCounter =   333
(PID.TID 0000.0001) ADWRITE:  tapeFileCounter =   334
(PID.TID 0000.0001) ADWRITE:  tapeFileCounter =   335
(PID.TID 0000.0001) ADWRITE:  tapeFileCounter =   336
(PID.TID 0000.0001) ADWRITE:  tapeFileCounter =   337
(PID.TID 0000.0001) ADWRITE:  tapeFileCounter =   338
(PID.TID 0000.0001) ADWRITE:  tapeFileCounter =   339
(PID.TID 0000.0001) ADWRITE:  tapeFileCounter =   340
(PID.TID 0000.0001) ADWRITE:  tapeFileCounter =   341
(PID.TID 0000.0001) ADWRITE:  tapeFileCounter =   342
(PID.TID 0000.0001) ADWRITE:  tapeFileCounter =   343
(PID.TID 0000.0001) ADWRITE:  tapeFileCounter =   344
(PID.TID 0000.0001) ADWRITE:  tapeFileCounter =   345
(PID.TID 0000.0001) ADWRITE: tid,vid, irec, length, prec(x2)=    41    40     1      672  8 64 fname=tapelev2_40_the_main_loop_areamask0
(PID.TID 0000.0001) ADWRITE:  tapeFileCounter =   346
(PID.TID 0000.0001) ADWRITE: tid,vid, irec, length, prec(x2)=    41    41     1      672  8 64 fname=tapelev2_41_the_main_loop_areamask1
(PID.TID 0000.0001) ADWRITE:  tapeFileCounter =   347
(PID.TID 0000.0001) ADWRITE: tid,vid, irec, length, prec(x2)=    41    42     1      672  8 64 fname=tapelev2_42_the_main_loop_hflux0
(PID.TID 0000.0001) ADWRITE:  tapeFileCounter =   348
(PID.TID 0000.0001) ADWRITE: tid,vid, irec, length, prec(x2)=    41    43     1      672  8 64 fname=tapelev2_43_the_main_loop_hflux1
(PID.TID 0000.0001) ADWRITE:  tapeFileCounter =   349
(PID.TID 0000.0001) ADWRITE: tid,vid, irec, length, prec(x2)=    41    44     1      672  8 64 fname=tapelev2_44_the_main_loop_sflux0
(PID.TID 0000.0001) ADWRITE:  tapeFileCounter =   350
(PID.TID 0000.0001) ADWRITE: tid,vid, irec, length, prec(x2)=    41    45     1      672  8 64 fname=tapelev2_45_the_main_loop_sflux1
(PID.TID 0000.0001) ADWRITE:  tapeFileCounter =   351
(PID.TID 0000.0001) ADWRITE: tid,vid, irec, length, prec(x2)=    41    46     1      672  8 64 fname=tapelev2_46_the_main_loop_ustress0
(PID.TID 0000.0001) ADWRITE:  tapeFileCounter =   352
(PID.TID 0000.0001) ADWRITE: tid,vid, irec, length, prec(x2)=    41    47     1      672  8 64 fname=tapelev2_47_the_main_loop_ustress1
(PID.TID 0000.0001) ADWRITE:  tapeFileCounter =   353
(PID.TID 0000.0001) ADWRITE: tid,vid, irec, length, prec(x2)=    41    48     1      672  8 64 fname=tapelev2_48_the_main_loop_vstress0
(PID.TID 0000.0001) ADWRITE:  tapeFileCounter =   354
(PID.TID 0000.0001) ADWRITE: tid,vid, irec, length, prec(x2)=    41    49     1      672  8 64 fname=tapelev2_49_the_main_loop_vstress1
(PID.TID 0000.0001) ADWRITE:  tapeFileCounter =   355
(PID.TID 0000.0001) ADWRITE: tid,vid, irec, length, prec(x2)=    41    50     1      672  8 64 fname=tapelev2_50_the_main_loop_wspeed0
(PID.TID 0000.0001) ADWRITE:  tapeFileCounter =   356
(PID.TID 0000.0001) ADWRITE: tid,vid, irec, length, prec(x2)=    41    51     1      672  8 64 fname=tapelev2_51_the_main_loop_wspeed1
(PID.TID 0000.0001) ADWRITE:  tapeFileCounter =   357
(PID.TID 0000.0001) ADWRITE: tid,vid, irec, length, prec(x2)=    41    54     1      672  8 64 fname=tapelev2_54_the_main_loop_runoff0
(PID.TID 0000.0001) ADWRITE:  tapeFileCounter =   358
(PID.TID 0000.0001) ADWRITE: tid,vid, irec, length, prec(x2)=    41    55     1      672  8 64 fname=tapelev2_55_the_main_loop_runoff1
(PID.TID 0000.0001) ADWRITE:  tapeFileCounter =   359
(PID.TID 0000.0001) ADWRITE: tid,vid, irec, length, prec(x2)=    41    56     1      672  8 64 fname=tapelev2_56_the_main_loop_apressure0
(PID.TID 0000.0001) ADWRITE:  tapeFileCounter =   360
(PID.TID 0000.0001) ADWRITE: tid,vid, irec, length, prec(x2)=    41    57     1      672  8 64 fname=tapelev2_57_the_main_loop_apressure1
(PID.TID 0000.0001) ADWRITE:  tapeFileCounter =   361
(PID.TID 0000.0001) ADWRITE: tid,vid, irec, length, prec(x2)=    41    58     1      672  8 64 fname=tapelev2_58_the_main_loop_siceload
(PID.TID 0000.0001) ADWRITE:  tapeFileCounter =   362
(PID.TID 0000.0001) ADWRITE: tid,vid, irec, length, prec(x2)=    41    59     1      672  8 64 fname=tapelev2_59_the_main_loop_climsss0
(PID.TID 0000.0001) ADWRITE:  tapeFileCounter =   363
(PID.TID 0000.0001) ADWRITE: tid,vid, irec, length, prec(x2)=    41    60     1      672  8 64 fname=tapelev2_60_the_main_loop_climsss1
(PID.TID 0000.0001) ADWRITE:  tapeFileCounter =   364
(PID.TID 0000.0001) ADWRITE: tid,vid, irec, length, prec(x2)=    41    61     1      672  8 64 fname=tapelev2_61_the_main_loop_climsst0
(PID.TID 0000.0001) ADWRITE:  tapeFileCounter =   365
(PID.TID 0000.0001) ADWRITE: tid,vid, irec, length, prec(x2)=    41    62     1      672  8 64 fname=tapelev2_62_the_main_loop_climsst1
(PID.TID 0000.0001) ADWRITE:  tapeFileCounter =   366
(PID.TID 0000.0001) ADWRITE: tid,vid, irec, length, prec(x2)=    41    63     1      672  8 64 fname=tapelev2_63_the_main_loop_saltflx0
(PID.TID 0000.0001) ADWRITE:  tapeFileCounter =   367
(PID.TID 0000.0001) ADWRITE: tid,vid, irec, length, prec(x2)=    41    64     1      672  8 64 fname=tapelev2_64_the_main_loop_saltflx1
(PID.TID 0000.0001) ADWRITE:  tapeFileCounter =   368
(PID.TID 0000.0001) ADWRITE: tid,vid, irec, length, prec(x2)=    41    65     1      672  8 64 fname=tapelev2_65_the_main_loop_aqh0
(PID.TID 0000.0001) ADWRITE:  tapeFileCounter =   369
(PID.TID 0000.0001) ADWRITE: tid,vid, irec, length, prec(x2)=    41    66     1      672  8 64 fname=tapelev2_66_the_main_loop_aqh1
(PID.TID 0000.0001) ADWRITE:  tapeFileCounter =   370
(PID.TID 0000.0001) ADWRITE: tid,vid, irec, length, prec(x2)=    41    67     1      672  8 64 fname=tapelev2_67_the_main_loop_atemp0
(PID.TID 0000.0001) ADWRITE:  tapeFileCounter =   371
(PID.TID 0000.0001) ADWRITE: tid,vid, irec, length, prec(x2)=    41    68     1      672  8 64 fname=tapelev2_68_the_main_loop_atemp1
(PID.TID 0000.0001) ADWRITE:  tapeFileCounter =   372
(PID.TID 0000.0001) ADWRITE: tid,vid, irec, length, prec(x2)=    41    69     1      672  8 64 fname=tapelev2_69_the_main_loop_precip0
(PID.TID 0000.0001) ADWRITE:  tapeFileCounter =   373
(PID.TID 0000.0001) ADWRITE: tid,vid, irec, length, prec(x2)=    41    70     1      672  8 64 fname=tapelev2_70_the_main_loop_precip1
(PID.TID 0000.0001) ADWRITE:  tapeFileCounter =   374
(PID.TID 0000.0001) ADWRITE: tid,vid, irec, length, prec(x2)=    41    73     1      672  8 64 fname=tapelev2_73_the_main_loop_snowprecip0
(PID.TID 0000.0001) ADWRITE:  tapeFileCounter =   375
(PID.TID 0000.0001) ADWRITE: tid,vid, irec, length, prec(x2)=    41    74     1      672  8 64 fname=tapelev2_74_the_main_loop_snowprecip1
(PID.TID 0000.0001) ADWRITE:  tapeFileCounter =   376
(PID.TID 0000.0001) ADWRITE: tid,vid, irec, length, prec(x2)=    41    75     1      672  8 64 fname=tapelev2_75_the_main_loop_swdown0
(PID.TID 0000.0001) ADWRITE:  tapeFileCounter =   377
(PID.TID 0000.0001) ADWRITE: tid,vid, irec, length, prec(x2)=    41    76     1      672  8 64 fname=tapelev2_76_the_main_loop_swdown1
(PID.TID 0000.0001) ADWRITE:  tapeFileCounter =   378
(PID.TID 0000.0001) ADWRITE: tid,vid, irec, length, prec(x2)=    41    77     1      672  8 64 fname=tapelev2_77_the_main_loop_lwdown0
(PID.TID 0000.0001) ADWRITE:  tapeFileCounter =   379
(PID.TID 0000.0001) ADWRITE: tid,vid, irec, length, prec(x2)=    41    78     1      672  8 64 fname=tapelev2_78_the_main_loop_lwdown1
(PID.TID 0000.0001) ADWRITE:  tapeFileCounter =   380
(PID.TID 0000.0001) ADWRITE: tid,vid, irec, length, prec(x2)=    41    79     1      672  8 64 fname=tapelev2_79_the_main_loop_uwind0
(PID.TID 0000.0001) ADWRITE:  tapeFileCounter =   381
(PID.TID 0000.0001) ADWRITE: tid,vid, irec, length, prec(x2)=    41    80     1      672  8 64 fname=tapelev2_80_the_main_loop_uwind1
(PID.TID 0000.0001) ADWRITE:  tapeFileCounter =   382
(PID.TID 0000.0001) ADWRITE: tid,vid, irec, length, prec(x2)=    41    81     1      672  8 64 fname=tapelev2_81_the_main_loop_vwind0
(PID.TID 0000.0001) ADWRITE:  tapeFileCounter =   383
(PID.TID 0000.0001) ADWRITE: tid,vid, irec, length, prec(x2)=    41    82     1      672  8 64 fname=tapelev2_82_the_main_loop_vwind1
(PID.TID 0000.0001) ADWRITE:  tapeFileCounter =   384
(PID.TID 0000.0001) ADWRITE: tid,vid, irec, length, prec(x2)=    41    83     1     6048  8 64 fname=tapelev2_83_the_main_loop_xx_gentim2d
(PID.TID 0000.0001) ADWRITE:  tapeFileCounter =   385
(PID.TID 0000.0001) ADWRITE:  tapeFileCounter =   386
(PID.TID 0000.0001) ADWRITE:  tapeFileCounter =   387
(PID.TID 0000.0001) ADWRITE:  tapeFileCounter =   388
(PID.TID 0000.0001) ADWRITE:  tapeFileCounter =   389
(PID.TID 0000.0001) ADWRITE:  tapeFileCounter =   390
(PID.TID 0000.0001) ADWRITE:  tapeFileCounter =   391
(PID.TID 0000.0001) ADWRITE:  tapeFileCounter =   392
(PID.TID 0000.0001) ADWRITE:  tapeFileCounter =   393
(PID.TID 0000.0001) ADWRITE: tid,vid, irec, length, prec(x2)=    41    84     1     6048  8 64 fname=tapelev2_84_the_main_loop_xx_gentim2d0
(PID.TID 0000.0001) ADWRITE:  tapeFileCounter =   394
(PID.TID 0000.0001) ADWRITE:  tapeFileCounter =   395
(PID.TID 0000.0001) ADWRITE:  tapeFileCounter =   396
(PID.TID 0000.0001) ADWRITE:  tapeFileCounter =   397
(PID.TID 0000.0001) ADWRITE:  tapeFileCounter =   398
(PID.TID 0000.0001) ADWRITE:  tapeFileCounter =   399
(PID.TID 0000.0001) ADWRITE:  tapeFileCounter =   400
(PID.TID 0000.0001) ADWRITE:  tapeFileCounter =   401
(PID.TID 0000.0001) ADWRITE:  tapeFileCounter =   402
(PID.TID 0000.0001) ADWRITE: tid,vid, irec, length, prec(x2)=    41    85     1     6048  8 64 fname=tapelev2_85_the_main_loop_xx_gentim2d1
(PID.TID 0000.0001) ADWRITE:  tapeFileCounter =   403
(PID.TID 0000.0001) ADWRITE:  tapeFileCounter =   404
(PID.TID 0000.0001) ADWRITE:  tapeFileCounter =   405
(PID.TID 0000.0001) ADWRITE:  tapeFileCounter =   406
(PID.TID 0000.0001) ADWRITE:  tapeFileCounter =   407
(PID.TID 0000.0001) ADWRITE:  tapeFileCounter =   408
(PID.TID 0000.0001) ADWRITE:  tapeFileCounter =   409
(PID.TID 0000.0001) ADWRITE:  tapeFileCounter =   410
(PID.TID 0000.0001) ADWRITE:  tapeFileCounter =   411
(PID.TID 0000.0001) ADWRITE: tid,vid, irec, length, prec(x2)=    41    87     1      672  8 64 fname=tapelev2_87_the_main_loop_phihydlow
(PID.TID 0000.0001) ADWRITE:  tapeFileCounter =   412
(PID.TID 0000.0001) ADWRITE: tid,vid, irec, length, prec(x2)=    41    88     1      672  8 64 fname=tapelev2_88_the_main_loop_area
(PID.TID 0000.0001) ADWRITE:  tapeFileCounter =   413
(PID.TID 0000.0001) ADWRITE: tid,vid, irec, length, prec(x2)=    41    89     1      672  8 64 fname=tapelev2_89_the_main_loop_heff
(PID.TID 0000.0001) ADWRITE:  tapeFileCounter =   414
(PID.TID 0000.0001) ADWRITE: tid,vid, irec, length, prec(x2)=    41    90     1      672  8 64 fname=tapelev2_90_the_main_loop_hsnow
(PID.TID 0000.0001) ADWRITE:  tapeFileCounter =   415
(PID.TID 0000.0001) ADWRITE: tid,vid, irec, length, prec(x2)=    41    92     1      672  8 64 fname=tapelev2_92_the_main_loop_uice
(PID.TID 0000.0001) ADWRITE:  tapeFileCounter =   416
(PID.TID 0000.0001) ADWRITE: tid,vid, irec, length, prec(x2)=    41    93     1      672  8 64 fname=tapelev2_93_the_main_loop_vice
(PID.TID 0000.0001) ADWRITE:  tapeFileCounter =   417
(PID.TID 0000.0001) ADWRITE: tid,vid, irec, length, prec(x2)=    41    96     1     4704  8 64 fname=tapelev2_96_the_main_loop_tices
(PID.TID 0000.0001) ADWRITE:  tapeFileCounter =   418
(PID.TID 0000.0001) ADWRITE:  tapeFileCounter =   419
(PID.TID 0000.0001) ADWRITE:  tapeFileCounter =   420
(PID.TID 0000.0001) ADWRITE:  tapeFileCounter =   421
(PID.TID 0000.0001) ADWRITE:  tapeFileCounter =   422
(PID.TID 0000.0001) ADWRITE:  tapeFileCounter =   423
(PID.TID 0000.0001) ADWRITE:  tapeFileCounter =   424
(PID.TID 0000.0001) ADWRITE: tid,vid, irec, length, prec(x2)=    41    97     1      672  8 64 fname=tapelev2_97_the_main_loop_dwatn
(PID.TID 0000.0001) ADWRITE:  tapeFileCounter =   425
(PID.TID 0000.0001) ADWRITE: tid,vid, irec, length, prec(x2)=    41    98     1      672  8 64 fname=tapelev2_98_the_main_loop_stressdivergencex
(PID.TID 0000.0001) ADWRITE:  tapeFileCounter =   426
(PID.TID 0000.0001) ADWRITE: tid,vid, irec, length, prec(x2)=    41    99     1      672  8 64 fname=tapelev2_99_the_main_loop_stressdivergencey
(PID.TID 0000.0001) ADWRITE:  tapeFileCounter =   427
(PID.TID 0000.0001) ADWRITE: tid,vid, irec, length, prec(x2)=    41   100     1      672  8 64 fname=tapelev2_100_the_main_loop_seaice_sigma1
(PID.TID 0000.0001) ADWRITE:  tapeFileCounter =   428
(PID.TID 0000.0001) ADWRITE: tid,vid, irec, length, prec(x2)=    41   101     1      672  8 64 fname=tapelev2_101_the_main_loop_seaice_sigma2
(PID.TID 0000.0001) ADWRITE:  tapeFileCounter =   429
(PID.TID 0000.0001) ADWRITE: tid,vid, irec, length, prec(x2)=    41   102     1      672  8 64 fname=tapelev2_102_the_main_loop_seaice_sigma12
(PID.TID 0000.0001) ADWRITE:  tapeFileCounter =   430
(PID.TID 0000.0001) ADWRITE: tid,vid, irec, length, prec(x2)=    41   103     1      672  8 64 fname=tapelev2_103_the_main_loop_hsalt
(PID.TID 0000.0001) ADWRITE:  tapeFileCounter =   431
(PID.TID 0000.0001) whio : write lev 2 rec   1
(PID.TID 0000.0001) ADWRITE: tid,vid, irec, length, prec(x2)=    41     1     2      672  8 64 fname=tapelev2_1_the_main_loop_etan
(PID.TID 0000.0001) ADWRITE:  tapeFileCounter =     1
(PID.TID 0000.0001) ADWRITE: tid,vid, irec, length, prec(x2)=    41     2     2      672  8 64 fname=tapelev2_2_the_main_loop_taux0
(PID.TID 0000.0001) ADWRITE:  tapeFileCounter =     2
(PID.TID 0000.0001) ADWRITE: tid,vid, irec, length, prec(x2)=    41     3     2      672  8 64 fname=tapelev2_3_the_main_loop_taux1
(PID.TID 0000.0001) ADWRITE:  tapeFileCounter =     3
(PID.TID 0000.0001) ADWRITE: tid,vid, irec, length, prec(x2)=    41     4     2      672  8 64 fname=tapelev2_4_the_main_loop_tauy0
(PID.TID 0000.0001) ADWRITE:  tapeFileCounter =     4
(PID.TID 0000.0001) ADWRITE: tid,vid, irec, length, prec(x2)=    41     5     2      672  8 64 fname=tapelev2_5_the_main_loop_tauy1
(PID.TID 0000.0001) ADWRITE:  tapeFileCounter =     5
(PID.TID 0000.0001) ADWRITE: tid,vid, irec, length, prec(x2)=    41     6     2      672  8 64 fname=tapelev2_6_the_main_loop_qnet0
(PID.TID 0000.0001) ADWRITE:  tapeFileCounter =     6
(PID.TID 0000.0001) ADWRITE: tid,vid, irec, length, prec(x2)=    41     7     2      672  8 64 fname=tapelev2_7_the_main_loop_qnet1
(PID.TID 0000.0001) ADWRITE:  tapeFileCounter =     7
(PID.TID 0000.0001) ADWRITE: tid,vid, irec, length, prec(x2)=    41     8     2      672  8 64 fname=tapelev2_8_the_main_loop_empmr0
(PID.TID 0000.0001) ADWRITE:  tapeFileCounter =     8
(PID.TID 0000.0001) ADWRITE: tid,vid, irec, length, prec(x2)=    41     9     2      672  8 64 fname=tapelev2_9_the_main_loop_empmr1
(PID.TID 0000.0001) ADWRITE:  tapeFileCounter =     9
(PID.TID 0000.0001) ADWRITE: tid,vid, irec, length, prec(x2)=    41    10     2      672  8 64 fname=tapelev2_10_the_main_loop_sst0
(PID.TID 0000.0001) ADWRITE:  tapeFileCounter =    10
(PID.TID 0000.0001) ADWRITE: tid,vid, irec, length, prec(x2)=    41    11     2      672  8 64 fname=tapelev2_11_the_main_loop_sst1
(PID.TID 0000.0001) ADWRITE:  tapeFileCounter =    11
(PID.TID 0000.0001) ADWRITE: tid,vid, irec, length, prec(x2)=    41    12     2      672  8 64 fname=tapelev2_12_the_main_loop_sss0
(PID.TID 0000.0001) ADWRITE:  tapeFileCounter =    12
(PID.TID 0000.0001) ADWRITE: tid,vid, irec, length, prec(x2)=    41    13     2      672  8 64 fname=tapelev2_13_the_main_loop_sss1
(PID.TID 0000.0001) ADWRITE:  tapeFileCounter =    13
(PID.TID 0000.0001) ADWRITE: tid,vid, irec, length, prec(x2)=    41    14     2      672  8 64 fname=tapelev2_14_the_main_loop_saltflux0
(PID.TID 0000.0001) ADWRITE:  tapeFileCounter =    14
(PID.TID 0000.0001) ADWRITE: tid,vid, irec, length, prec(x2)=    41    15     2      672  8 64 fname=tapelev2_15_the_main_loop_saltflux1
(PID.TID 0000.0001) ADWRITE:  tapeFileCounter =    15
(PID.TID 0000.0001) ADWRITE: tid,vid, irec, length, prec(x2)=    41    16     2      672  8 64 fname=tapelev2_16_the_main_loop_qsw0
(PID.TID 0000.0001) ADWRITE:  tapeFileCounter =    16
(PID.TID 0000.0001) ADWRITE: tid,vid, irec, length, prec(x2)=    41    17     2      672  8 64 fname=tapelev2_17_the_main_loop_qsw1
(PID.TID 0000.0001) ADWRITE:  tapeFileCounter =    17
(PID.TID 0000.0001) ADWRITE: tid,vid, irec, length, prec(x2)=    41    18     2      672  8 64 fname=tapelev2_18_the_main_loop_pload0
(PID.TID 0000.0001) ADWRITE:  tapeFileCounter =    18
(PID.TID 0000.0001) ADWRITE: tid,vid, irec, length, prec(x2)=    41    19     2      672  8 64 fname=tapelev2_19_the_main_loop_pload1
(PID.TID 0000.0001) ADWRITE:  tapeFileCounter =    19
(PID.TID 0000.0001) ADWRITE: tid,vid, irec, length, prec(x2)=    41    20     2      672  8 64 fname=tapelev2_20_the_main_loop_etah
(PID.TID 0000.0001) ADWRITE:  tapeFileCounter =    20
(PID.TID 0000.0001) ADWRITE: tid,vid, irec, length, prec(x2)=    41    21     2      672  8 64 fname=tapelev2_21_the_main_loop_detahdt
(PID.TID 0000.0001) ADWRITE:  tapeFileCounter =    21
(PID.TID 0000.0001) ADWRITE: tid,vid, irec, length, prec(x2)=    41    22     2      672  8 64 fname=tapelev2_22_the_main_loop_pmepr
(PID.TID 0000.0001) ADWRITE:  tapeFileCounter =    22
(PID.TID 0000.0001) ADWRITE: tid,vid, irec, length, prec(x2)=    41    23     2    15456  8 64 fname=tapelev2_23_the_main_loop_gtnm1
(PID.TID 0000.0001) ADWRITE:  tapeFileCounter =    23
(PID.TID 0000.0001) ADWRITE:  tapeFileCounter =    24
(PID.TID 0000.0001) ADWRITE:  tapeFileCounter =    25
(PID.TID 0000.0001) ADWRITE:  tapeFileCounter =    26
(PID.TID 0000.0001) ADWRITE:  tapeFileCounter =    27
(PID.TID 0000.0001) ADWRITE:  tapeFileCounter =    28
(PID.TID 0000.0001) ADWRITE:  tapeFileCounter =    29
(PID.TID 0000.0001) ADWRITE:  tapeFileCounter =    30
(PID.TID 0000.0001) ADWRITE:  tapeFileCounter =    31
(PID.TID 0000.0001) ADWRITE:  tapeFileCounter =    32
(PID.TID 0000.0001) ADWRITE:  tapeFileCounter =    33
(PID.TID 0000.0001) ADWRITE:  tapeFileCounter =    34
(PID.TID 0000.0001) ADWRITE:  tapeFileCounter =    35
(PID.TID 0000.0001) ADWRITE:  tapeFileCounter =    36
(PID.TID 0000.0001) ADWRITE:  tapeFileCounter =    37
(PID.TID 0000.0001) ADWRITE:  tapeFileCounter =    38
(PID.TID 0000.0001) ADWRITE:  tapeFileCounter =    39
(PID.TID 0000.0001) ADWRITE:  tapeFileCounter =    40
(PID.TID 0000.0001) ADWRITE:  tapeFileCounter =    41
(PID.TID 0000.0001) ADWRITE:  tapeFileCounter =    42
(PID.TID 0000.0001) ADWRITE:  tapeFileCounter =    43
(PID.TID 0000.0001) ADWRITE:  tapeFileCounter =    44
(PID.TID 0000.0001) ADWRITE:  tapeFileCounter =    45
(PID.TID 0000.0001) ADWRITE: tid,vid, irec, length, prec(x2)=    41    24     2    15456  8 64 fname=tapelev2_24_the_main_loop_gsnm1
(PID.TID 0000.0001) ADWRITE:  tapeFileCounter =    46
(PID.TID 0000.0001) ADWRITE:  tapeFileCounter =    47
(PID.TID 0000.0001) ADWRITE:  tapeFileCounter =    48
(PID.TID 0000.0001) ADWRITE:  tapeFileCounter =    49
(PID.TID 0000.0001) ADWRITE:  tapeFileCounter =    50
(PID.TID 0000.0001) ADWRITE:  tapeFileCounter =    51
(PID.TID 0000.0001) ADWRITE:  tapeFileCounter =    52
(PID.TID 0000.0001) ADWRITE:  tapeFileCounter =    53
(PID.TID 0000.0001) ADWRITE:  tapeFileCounter =    54
(PID.TID 0000.0001) ADWRITE:  tapeFileCounter =    55
(PID.TID 0000.0001) ADWRITE:  tapeFileCounter =    56
(PID.TID 0000.0001) ADWRITE:  tapeFileCounter =    57
(PID.TID 0000.0001) ADWRITE:  tapeFileCounter =    58
(PID.TID 0000.0001) ADWRITE:  tapeFileCounter =    59
(PID.TID 0000.0001) ADWRITE:  tapeFileCounter =    60
(PID.TID 0000.0001) ADWRITE:  tapeFileCounter =    61
(PID.TID 0000.0001) ADWRITE:  tapeFileCounter =    62
(PID.TID 0000.0001) ADWRITE:  tapeFileCounter =    63
(PID.TID 0000.0001) ADWRITE:  tapeFileCounter =    64
(PID.TID 0000.0001) ADWRITE:  tapeFileCounter =    65
(PID.TID 0000.0001) ADWRITE:  tapeFileCounter =    66
(PID.TID 0000.0001) ADWRITE:  tapeFileCounter =    67
(PID.TID 0000.0001) ADWRITE:  tapeFileCounter =    68
(PID.TID 0000.0001) ADWRITE: tid,vid, irec, length, prec(x2)=    41    25     2    15456  8 64 fname=tapelev2_25_the_main_loop_gunm1
(PID.TID 0000.0001) ADWRITE:  tapeFileCounter =    69
(PID.TID 0000.0001) ADWRITE:  tapeFileCounter =    70
(PID.TID 0000.0001) ADWRITE:  tapeFileCounter =    71
(PID.TID 0000.0001) ADWRITE:  tapeFileCounter =    72
(PID.TID 0000.0001) ADWRITE:  tapeFileCounter =    73
(PID.TID 0000.0001) ADWRITE:  tapeFileCounter =    74
(PID.TID 0000.0001) ADWRITE:  tapeFileCounter =    75
(PID.TID 0000.0001) ADWRITE:  tapeFileCounter =    76
(PID.TID 0000.0001) ADWRITE:  tapeFileCounter =    77
(PID.TID 0000.0001) ADWRITE:  tapeFileCounter =    78
(PID.TID 0000.0001) ADWRITE:  tapeFileCounter =    79
(PID.TID 0000.0001) ADWRITE:  tapeFileCounter =    80
(PID.TID 0000.0001) ADWRITE:  tapeFileCounter =    81
(PID.TID 0000.0001) ADWRITE:  tapeFileCounter =    82
(PID.TID 0000.0001) ADWRITE:  tapeFileCounter =    83
(PID.TID 0000.0001) ADWRITE:  tapeFileCounter =    84
(PID.TID 0000.0001) ADWRITE:  tapeFileCounter =    85
(PID.TID 0000.0001) ADWRITE:  tapeFileCounter =    86
(PID.TID 0000.0001) ADWRITE:  tapeFileCounter =    87
(PID.TID 0000.0001) ADWRITE:  tapeFileCounter =    88
(PID.TID 0000.0001) ADWRITE:  tapeFileCounter =    89
(PID.TID 0000.0001) ADWRITE:  tapeFileCounter =    90
(PID.TID 0000.0001) ADWRITE:  tapeFileCounter =    91
(PID.TID 0000.0001) ADWRITE: tid,vid, irec, length, prec(x2)=    41    26     2    15456  8 64 fname=tapelev2_26_the_main_loop_gvnm1
(PID.TID 0000.0001) ADWRITE:  tapeFileCounter =    92
(PID.TID 0000.0001) ADWRITE:  tapeFileCounter =    93
(PID.TID 0000.0001) ADWRITE:  tapeFileCounter =    94
(PID.TID 0000.0001) ADWRITE:  tapeFileCounter =    95
(PID.TID 0000.0001) ADWRITE:  tapeFileCounter =    96
(PID.TID 0000.0001) ADWRITE:  tapeFileCounter =    97
(PID.TID 0000.0001) ADWRITE:  tapeFileCounter =    98
(PID.TID 0000.0001) ADWRITE:  tapeFileCounter =    99
(PID.TID 0000.0001) ADWRITE:  tapeFileCounter =   100
(PID.TID 0000.0001) ADWRITE:  tapeFileCounter =   101
(PID.TID 0000.0001) ADWRITE:  tapeFileCounter =   102
(PID.TID 0000.0001) ADWRITE:  tapeFileCounter =   103
(PID.TID 0000.0001) ADWRITE:  tapeFileCounter =   104
(PID.TID 0000.0001) ADWRITE:  tapeFileCounter =   105
(PID.TID 0000.0001) ADWRITE:  tapeFileCounter =   106
(PID.TID 0000.0001) ADWRITE:  tapeFileCounter =   107
(PID.TID 0000.0001) ADWRITE:  tapeFileCounter =   108
(PID.TID 0000.0001) ADWRITE:  tapeFileCounter =   109
(PID.TID 0000.0001) ADWRITE:  tapeFileCounter =   110
(PID.TID 0000.0001) ADWRITE:  tapeFileCounter =   111
(PID.TID 0000.0001) ADWRITE:  tapeFileCounter =   112
(PID.TID 0000.0001) ADWRITE:  tapeFileCounter =   113
(PID.TID 0000.0001) ADWRITE:  tapeFileCounter =   114
(PID.TID 0000.0001) ADWRITE: tid,vid, irec, length, prec(x2)=    41    27     2    15456  8 64 fname=tapelev2_27_the_main_loop_theta
(PID.TID 0000.0001) ADWRITE:  tapeFileCounter =   115
(PID.TID 0000.0001) ADWRITE:  tapeFileCounter =   116
(PID.TID 0000.0001) ADWRITE:  tapeFileCounter =   117
(PID.TID 0000.0001) ADWRITE:  tapeFileCounter =   118
(PID.TID 0000.0001) ADWRITE:  tapeFileCounter =   119
(PID.TID 0000.0001) ADWRITE:  tapeFileCounter =   120
(PID.TID 0000.0001) ADWRITE:  tapeFileCounter =   121
(PID.TID 0000.0001) ADWRITE:  tapeFileCounter =   122
(PID.TID 0000.0001) ADWRITE:  tapeFileCounter =   123
(PID.TID 0000.0001) ADWRITE:  tapeFileCounter =   124
(PID.TID 0000.0001) ADWRITE:  tapeFileCounter =   125
(PID.TID 0000.0001) ADWRITE:  tapeFileCounter =   126
(PID.TID 0000.0001) ADWRITE:  tapeFileCounter =   127
(PID.TID 0000.0001) ADWRITE:  tapeFileCounter =   128
(PID.TID 0000.0001) ADWRITE:  tapeFileCounter =   129
(PID.TID 0000.0001) ADWRITE:  tapeFileCounter =   130
(PID.TID 0000.0001) ADWRITE:  tapeFileCounter =   131
(PID.TID 0000.0001) ADWRITE:  tapeFileCounter =   132
(PID.TID 0000.0001) ADWRITE:  tapeFileCounter =   133
(PID.TID 0000.0001) ADWRITE:  tapeFileCounter =   134
(PID.TID 0000.0001) ADWRITE:  tapeFileCounter =   135
(PID.TID 0000.0001) ADWRITE:  tapeFileCounter =   136
(PID.TID 0000.0001) ADWRITE:  tapeFileCounter =   137
(PID.TID 0000.0001) ADWRITE: tid,vid, irec, length, prec(x2)=    41    28     2    15456  8 64 fname=tapelev2_28_the_main_loop_salt
(PID.TID 0000.0001) ADWRITE:  tapeFileCounter =   138
(PID.TID 0000.0001) ADWRITE:  tapeFileCounter =   139
(PID.TID 0000.0001) ADWRITE:  tapeFileCounter =   140
(PID.TID 0000.0001) ADWRITE:  tapeFileCounter =   141
(PID.TID 0000.0001) ADWRITE:  tapeFileCounter =   142
(PID.TID 0000.0001) ADWRITE:  tapeFileCounter =   143
(PID.TID 0000.0001) ADWRITE:  tapeFileCounter =   144
(PID.TID 0000.0001) ADWRITE:  tapeFileCounter =   145
(PID.TID 0000.0001) ADWRITE:  tapeFileCounter =   146
(PID.TID 0000.0001) ADWRITE:  tapeFileCounter =   147
(PID.TID 0000.0001) ADWRITE:  tapeFileCounter =   148
(PID.TID 0000.0001) ADWRITE:  tapeFileCounter =   149
(PID.TID 0000.0001) ADWRITE:  tapeFileCounter =   150
(PID.TID 0000.0001) ADWRITE:  tapeFileCounter =   151
(PID.TID 0000.0001) ADWRITE:  tapeFileCounter =   152
(PID.TID 0000.0001) ADWRITE:  tapeFileCounter =   153
(PID.TID 0000.0001) ADWRITE:  tapeFileCounter =   154
(PID.TID 0000.0001) ADWRITE:  tapeFileCounter =   155
(PID.TID 0000.0001) ADWRITE:  tapeFileCounter =   156
(PID.TID 0000.0001) ADWRITE:  tapeFileCounter =   157
(PID.TID 0000.0001) ADWRITE:  tapeFileCounter =   158
(PID.TID 0000.0001) ADWRITE:  tapeFileCounter =   159
(PID.TID 0000.0001) ADWRITE:  tapeFileCounter =   160
(PID.TID 0000.0001) ADWRITE: tid,vid, irec, length, prec(x2)=    41    29     2    15456  8 64 fname=tapelev2_29_the_main_loop_uvel
(PID.TID 0000.0001) ADWRITE:  tapeFileCounter =   161
(PID.TID 0000.0001) ADWRITE:  tapeFileCounter =   162
(PID.TID 0000.0001) ADWRITE:  tapeFileCounter =   163
(PID.TID 0000.0001) ADWRITE:  tapeFileCounter =   164
(PID.TID 0000.0001) ADWRITE:  tapeFileCounter =   165
(PID.TID 0000.0001) ADWRITE:  tapeFileCounter =   166
(PID.TID 0000.0001) ADWRITE:  tapeFileCounter =   167
(PID.TID 0000.0001) ADWRITE:  tapeFileCounter =   168
(PID.TID 0000.0001) ADWRITE:  tapeFileCounter =   169
(PID.TID 0000.0001) ADWRITE:  tapeFileCounter =   170
(PID.TID 0000.0001) ADWRITE:  tapeFileCounter =   171
(PID.TID 0000.0001) ADWRITE:  tapeFileCounter =   172
(PID.TID 0000.0001) ADWRITE:  tapeFileCounter =   173
(PID.TID 0000.0001) ADWRITE:  tapeFileCounter =   174
(PID.TID 0000.0001) ADWRITE:  tapeFileCounter =   175
(PID.TID 0000.0001) ADWRITE:  tapeFileCounter =   176
(PID.TID 0000.0001) ADWRITE:  tapeFileCounter =   177
(PID.TID 0000.0001) ADWRITE:  tapeFileCounter =   178
(PID.TID 0000.0001) ADWRITE:  tapeFileCounter =   179
(PID.TID 0000.0001) ADWRITE:  tapeFileCounter =   180
(PID.TID 0000.0001) ADWRITE:  tapeFileCounter =   181
(PID.TID 0000.0001) ADWRITE:  tapeFileCounter =   182
(PID.TID 0000.0001) ADWRITE:  tapeFileCounter =   183
(PID.TID 0000.0001) ADWRITE: tid,vid, irec, length, prec(x2)=    41    30     2    15456  8 64 fname=tapelev2_30_the_main_loop_vvel
(PID.TID 0000.0001) ADWRITE:  tapeFileCounter =   184
(PID.TID 0000.0001) ADWRITE:  tapeFileCounter =   185
(PID.TID 0000.0001) ADWRITE:  tapeFileCounter =   186
(PID.TID 0000.0001) ADWRITE:  tapeFileCounter =   187
(PID.TID 0000.0001) ADWRITE:  tapeFileCounter =   188
(PID.TID 0000.0001) ADWRITE:  tapeFileCounter =   189
(PID.TID 0000.0001) ADWRITE:  tapeFileCounter =   190
(PID.TID 0000.0001) ADWRITE:  tapeFileCounter =   191
(PID.TID 0000.0001) ADWRITE:  tapeFileCounter =   192
(PID.TID 0000.0001) ADWRITE:  tapeFileCounter =   193
(PID.TID 0000.0001) ADWRITE:  tapeFileCounter =   194
(PID.TID 0000.0001) ADWRITE:  tapeFileCounter =   195
(PID.TID 0000.0001) ADWRITE:  tapeFileCounter =   196
(PID.TID 0000.0001) ADWRITE:  tapeFileCounter =   197
(PID.TID 0000.0001) ADWRITE:  tapeFileCounter =   198
(PID.TID 0000.0001) ADWRITE:  tapeFileCounter =   199
(PID.TID 0000.0001) ADWRITE:  tapeFileCounter =   200
(PID.TID 0000.0001) ADWRITE:  tapeFileCounter =   201
(PID.TID 0000.0001) ADWRITE:  tapeFileCounter =   202
(PID.TID 0000.0001) ADWRITE:  tapeFileCounter =   203
(PID.TID 0000.0001) ADWRITE:  tapeFileCounter =   204
(PID.TID 0000.0001) ADWRITE:  tapeFileCounter =   205
(PID.TID 0000.0001) ADWRITE:  tapeFileCounter =   206
(PID.TID 0000.0001) ADWRITE: tid,vid, irec, length, prec(x2)=    41    31     2    15456  8 64 fname=tapelev2_31_the_main_loop_wvel
(PID.TID 0000.0001) ADWRITE:  tapeFileCounter =   207
(PID.TID 0000.0001) ADWRITE:  tapeFileCounter =   208
(PID.TID 0000.0001) ADWRITE:  tapeFileCounter =   209
(PID.TID 0000.0001) ADWRITE:  tapeFileCounter =   210
(PID.TID 0000.0001) ADWRITE:  tapeFileCounter =   211
(PID.TID 0000.0001) ADWRITE:  tapeFileCounter =   212
(PID.TID 0000.0001) ADWRITE:  tapeFileCounter =   213
(PID.TID 0000.0001) ADWRITE:  tapeFileCounter =   214
(PID.TID 0000.0001) ADWRITE:  tapeFileCounter =   215
(PID.TID 0000.0001) ADWRITE:  tapeFileCounter =   216
(PID.TID 0000.0001) ADWRITE:  tapeFileCounter =   217
(PID.TID 0000.0001) ADWRITE:  tapeFileCounter =   218
(PID.TID 0000.0001) ADWRITE:  tapeFileCounter =   219
(PID.TID 0000.0001) ADWRITE:  tapeFileCounter =   220
(PID.TID 0000.0001) ADWRITE:  tapeFileCounter =   221
(PID.TID 0000.0001) ADWRITE:  tapeFileCounter =   222
(PID.TID 0000.0001) ADWRITE:  tapeFileCounter =   223
(PID.TID 0000.0001) ADWRITE:  tapeFileCounter =   224
(PID.TID 0000.0001) ADWRITE:  tapeFileCounter =   225
(PID.TID 0000.0001) ADWRITE:  tapeFileCounter =   226
(PID.TID 0000.0001) ADWRITE:  tapeFileCounter =   227
(PID.TID 0000.0001) ADWRITE:  tapeFileCounter =   228
(PID.TID 0000.0001) ADWRITE:  tapeFileCounter =   229
(PID.TID 0000.0001) ADWRITE: tid,vid, irec, length, prec(x2)=    41    32     2    15456  8 64 fname=tapelev2_32_the_main_loop_totphihyd
(PID.TID 0000.0001) ADWRITE:  tapeFileCounter =   230
(PID.TID 0000.0001) ADWRITE:  tapeFileCounter =   231
(PID.TID 0000.0001) ADWRITE:  tapeFileCounter =   232
(PID.TID 0000.0001) ADWRITE:  tapeFileCounter =   233
(PID.TID 0000.0001) ADWRITE:  tapeFileCounter =   234
(PID.TID 0000.0001) ADWRITE:  tapeFileCounter =   235
(PID.TID 0000.0001) ADWRITE:  tapeFileCounter =   236
(PID.TID 0000.0001) ADWRITE:  tapeFileCounter =   237
(PID.TID 0000.0001) ADWRITE:  tapeFileCounter =   238
(PID.TID 0000.0001) ADWRITE:  tapeFileCounter =   239
(PID.TID 0000.0001) ADWRITE:  tapeFileCounter =   240
(PID.TID 0000.0001) ADWRITE:  tapeFileCounter =   241
(PID.TID 0000.0001) ADWRITE:  tapeFileCounter =   242
(PID.TID 0000.0001) ADWRITE:  tapeFileCounter =   243
(PID.TID 0000.0001) ADWRITE:  tapeFileCounter =   244
(PID.TID 0000.0001) ADWRITE:  tapeFileCounter =   245
(PID.TID 0000.0001) ADWRITE:  tapeFileCounter =   246
(PID.TID 0000.0001) ADWRITE:  tapeFileCounter =   247
(PID.TID 0000.0001) ADWRITE:  tapeFileCounter =   248
(PID.TID 0000.0001) ADWRITE:  tapeFileCounter =   249
(PID.TID 0000.0001) ADWRITE:  tapeFileCounter =   250
(PID.TID 0000.0001) ADWRITE:  tapeFileCounter =   251
(PID.TID 0000.0001) ADWRITE:  tapeFileCounter =   252
(PID.TID 0000.0001) ADWRITE: tid,vid, irec, length, prec(x2)=    41    35     2    15456  8 64 fname=tapelev2_35_the_main_loop_uveld
(PID.TID 0000.0001) ADWRITE:  tapeFileCounter =   253
(PID.TID 0000.0001) ADWRITE:  tapeFileCounter =   254
(PID.TID 0000.0001) ADWRITE:  tapeFileCounter =   255
(PID.TID 0000.0001) ADWRITE:  tapeFileCounter =   256
(PID.TID 0000.0001) ADWRITE:  tapeFileCounter =   257
(PID.TID 0000.0001) ADWRITE:  tapeFileCounter =   258
(PID.TID 0000.0001) ADWRITE:  tapeFileCounter =   259
(PID.TID 0000.0001) ADWRITE:  tapeFileCounter =   260
(PID.TID 0000.0001) ADWRITE:  tapeFileCounter =   261
(PID.TID 0000.0001) ADWRITE:  tapeFileCounter =   262
(PID.TID 0000.0001) ADWRITE:  tapeFileCounter =   263
(PID.TID 0000.0001) ADWRITE:  tapeFileCounter =   264
(PID.TID 0000.0001) ADWRITE:  tapeFileCounter =   265
(PID.TID 0000.0001) ADWRITE:  tapeFileCounter =   266
(PID.TID 0000.0001) ADWRITE:  tapeFileCounter =   267
(PID.TID 0000.0001) ADWRITE:  tapeFileCounter =   268
(PID.TID 0000.0001) ADWRITE:  tapeFileCounter =   269
(PID.TID 0000.0001) ADWRITE:  tapeFileCounter =   270
(PID.TID 0000.0001) ADWRITE:  tapeFileCounter =   271
(PID.TID 0000.0001) ADWRITE:  tapeFileCounter =   272
(PID.TID 0000.0001) ADWRITE:  tapeFileCounter =   273
(PID.TID 0000.0001) ADWRITE:  tapeFileCounter =   274
(PID.TID 0000.0001) ADWRITE:  tapeFileCounter =   275
(PID.TID 0000.0001) ADWRITE: tid,vid, irec, length, prec(x2)=    41    36     2    15456  8 64 fname=tapelev2_36_the_main_loop_vveld
(PID.TID 0000.0001) ADWRITE:  tapeFileCounter =   276
(PID.TID 0000.0001) ADWRITE:  tapeFileCounter =   277
(PID.TID 0000.0001) ADWRITE:  tapeFileCounter =   278
(PID.TID 0000.0001) ADWRITE:  tapeFileCounter =   279
(PID.TID 0000.0001) ADWRITE:  tapeFileCounter =   280
(PID.TID 0000.0001) ADWRITE:  tapeFileCounter =   281
(PID.TID 0000.0001) ADWRITE:  tapeFileCounter =   282
(PID.TID 0000.0001) ADWRITE:  tapeFileCounter =   283
(PID.TID 0000.0001) ADWRITE:  tapeFileCounter =   284
(PID.TID 0000.0001) ADWRITE:  tapeFileCounter =   285
(PID.TID 0000.0001) ADWRITE:  tapeFileCounter =   286
(PID.TID 0000.0001) ADWRITE:  tapeFileCounter =   287
(PID.TID 0000.0001) ADWRITE:  tapeFileCounter =   288
(PID.TID 0000.0001) ADWRITE:  tapeFileCounter =   289
(PID.TID 0000.0001) ADWRITE:  tapeFileCounter =   290
(PID.TID 0000.0001) ADWRITE:  tapeFileCounter =   291
(PID.TID 0000.0001) ADWRITE:  tapeFileCounter =   292
(PID.TID 0000.0001) ADWRITE:  tapeFileCounter =   293
(PID.TID 0000.0001) ADWRITE:  tapeFileCounter =   294
(PID.TID 0000.0001) ADWRITE:  tapeFileCounter =   295
(PID.TID 0000.0001) ADWRITE:  tapeFileCounter =   296
(PID.TID 0000.0001) ADWRITE:  tapeFileCounter =   297
(PID.TID 0000.0001) ADWRITE:  tapeFileCounter =   298
(PID.TID 0000.0001) ADWRITE: tid,vid, irec, length, prec(x2)=    41    37     2      672  8 64 fname=tapelev2_37_the_main_loop_etanm1
(PID.TID 0000.0001) ADWRITE:  tapeFileCounter =   299
(PID.TID 0000.0001) ADWRITE: tid,vid, irec, length, prec(x2)=    41    38     2    15456  8 64 fname=tapelev2_38_the_main_loop_unm1
(PID.TID 0000.0001) ADWRITE:  tapeFileCounter =   300
(PID.TID 0000.0001) ADWRITE:  tapeFileCounter =   301
(PID.TID 0000.0001) ADWRITE:  tapeFileCounter =   302
(PID.TID 0000.0001) ADWRITE:  tapeFileCounter =   303
(PID.TID 0000.0001) ADWRITE:  tapeFileCounter =   304
(PID.TID 0000.0001) ADWRITE:  tapeFileCounter =   305
(PID.TID 0000.0001) ADWRITE:  tapeFileCounter =   306
(PID.TID 0000.0001) ADWRITE:  tapeFileCounter =   307
(PID.TID 0000.0001) ADWRITE:  tapeFileCounter =   308
(PID.TID 0000.0001) ADWRITE:  tapeFileCounter =   309
(PID.TID 0000.0001) ADWRITE:  tapeFileCounter =   310
(PID.TID 0000.0001) ADWRITE:  tapeFileCounter =   311
(PID.TID 0000.0001) ADWRITE:  tapeFileCounter =   312
(PID.TID 0000.0001) ADWRITE:  tapeFileCounter =   313
(PID.TID 0000.0001) ADWRITE:  tapeFileCounter =   314
(PID.TID 0000.0001) ADWRITE:  tapeFileCounter =   315
(PID.TID 0000.0001) ADWRITE:  tapeFileCounter =   316
(PID.TID 0000.0001) ADWRITE:  tapeFileCounter =   317
(PID.TID 0000.0001) ADWRITE:  tapeFileCounter =   318
(PID.TID 0000.0001) ADWRITE:  tapeFileCounter =   319
(PID.TID 0000.0001) ADWRITE:  tapeFileCounter =   320
(PID.TID 0000.0001) ADWRITE:  tapeFileCounter =   321
(PID.TID 0000.0001) ADWRITE:  tapeFileCounter =   322
(PID.TID 0000.0001) ADWRITE: tid,vid, irec, length, prec(x2)=    41    39     2    15456  8 64 fname=tapelev2_39_the_main_loop_vnm1
(PID.TID 0000.0001) ADWRITE:  tapeFileCounter =   323
(PID.TID 0000.0001) ADWRITE:  tapeFileCounter =   324
(PID.TID 0000.0001) ADWRITE:  tapeFileCounter =   325
(PID.TID 0000.0001) ADWRITE:  tapeFileCounter =   326
(PID.TID 0000.0001) ADWRITE:  tapeFileCounter =   327
(PID.TID 0000.0001) ADWRITE:  tapeFileCounter =   328
(PID.TID 0000.0001) ADWRITE:  tapeFileCounter =   329
(PID.TID 0000.0001) ADWRITE:  tapeFileCounter =   330
(PID.TID 0000.0001) ADWRITE:  tapeFileCounter =   331
(PID.TID 0000.0001) ADWRITE:  tapeFileCounter =   332
(PID.TID 0000.0001) ADWRITE:  tapeFileCounter =   333
(PID.TID 0000.0001) ADWRITE:  tapeFileCounter =   334
(PID.TID 0000.0001) ADWRITE:  tapeFileCounter =   335
(PID.TID 0000.0001) ADWRITE:  tapeFileCounter =   336
(PID.TID 0000.0001) ADWRITE:  tapeFileCounter =   337
(PID.TID 0000.0001) ADWRITE:  tapeFileCounter =   338
(PID.TID 0000.0001) ADWRITE:  tapeFileCounter =   339
(PID.TID 0000.0001) ADWRITE:  tapeFileCounter =   340
(PID.TID 0000.0001) ADWRITE:  tapeFileCounter =   341
(PID.TID 0000.0001) ADWRITE:  tapeFileCounter =   342
(PID.TID 0000.0001) ADWRITE:  tapeFileCounter =   343
(PID.TID 0000.0001) ADWRITE:  tapeFileCounter =   344
(PID.TID 0000.0001) ADWRITE:  tapeFileCounter =   345
(PID.TID 0000.0001) ADWRITE: tid,vid, irec, length, prec(x2)=    41    40     2      672  8 64 fname=tapelev2_40_the_main_loop_areamask0
(PID.TID 0000.0001) ADWRITE:  tapeFileCounter =   346
(PID.TID 0000.0001) ADWRITE: tid,vid, irec, length, prec(x2)=    41    41     2      672  8 64 fname=tapelev2_41_the_main_loop_areamask1
(PID.TID 0000.0001) ADWRITE:  tapeFileCounter =   347
(PID.TID 0000.0001) ADWRITE: tid,vid, irec, length, prec(x2)=    41    42     2      672  8 64 fname=tapelev2_42_the_main_loop_hflux0
(PID.TID 0000.0001) ADWRITE:  tapeFileCounter =   348
(PID.TID 0000.0001) ADWRITE: tid,vid, irec, length, prec(x2)=    41    43     2      672  8 64 fname=tapelev2_43_the_main_loop_hflux1
(PID.TID 0000.0001) ADWRITE:  tapeFileCounter =   349
(PID.TID 0000.0001) ADWRITE: tid,vid, irec, length, prec(x2)=    41    44     2      672  8 64 fname=tapelev2_44_the_main_loop_sflux0
(PID.TID 0000.0001) ADWRITE:  tapeFileCounter =   350
(PID.TID 0000.0001) ADWRITE: tid,vid, irec, length, prec(x2)=    41    45     2      672  8 64 fname=tapelev2_45_the_main_loop_sflux1
(PID.TID 0000.0001) ADWRITE:  tapeFileCounter =   351
(PID.TID 0000.0001) ADWRITE: tid,vid, irec, length, prec(x2)=    41    46     2      672  8 64 fname=tapelev2_46_the_main_loop_ustress0
(PID.TID 0000.0001) ADWRITE:  tapeFileCounter =   352
(PID.TID 0000.0001) ADWRITE: tid,vid, irec, length, prec(x2)=    41    47     2      672  8 64 fname=tapelev2_47_the_main_loop_ustress1
(PID.TID 0000.0001) ADWRITE:  tapeFileCounter =   353
(PID.TID 0000.0001) ADWRITE: tid,vid, irec, length, prec(x2)=    41    48     2      672  8 64 fname=tapelev2_48_the_main_loop_vstress0
(PID.TID 0000.0001) ADWRITE:  tapeFileCounter =   354
(PID.TID 0000.0001) ADWRITE: tid,vid, irec, length, prec(x2)=    41    49     2      672  8 64 fname=tapelev2_49_the_main_loop_vstress1
(PID.TID 0000.0001) ADWRITE:  tapeFileCounter =   355
(PID.TID 0000.0001) ADWRITE: tid,vid, irec, length, prec(x2)=    41    50     2      672  8 64 fname=tapelev2_50_the_main_loop_wspeed0
(PID.TID 0000.0001) ADWRITE:  tapeFileCounter =   356
(PID.TID 0000.0001) ADWRITE: tid,vid, irec, length, prec(x2)=    41    51     2      672  8 64 fname=tapelev2_51_the_main_loop_wspeed1
(PID.TID 0000.0001) ADWRITE:  tapeFileCounter =   357
(PID.TID 0000.0001) ADWRITE: tid,vid, irec, length, prec(x2)=    41    54     2      672  8 64 fname=tapelev2_54_the_main_loop_runoff0
(PID.TID 0000.0001) ADWRITE:  tapeFileCounter =   358
(PID.TID 0000.0001) ADWRITE: tid,vid, irec, length, prec(x2)=    41    55     2      672  8 64 fname=tapelev2_55_the_main_loop_runoff1
(PID.TID 0000.0001) ADWRITE:  tapeFileCounter =   359
(PID.TID 0000.0001) ADWRITE: tid,vid, irec, length, prec(x2)=    41    56     2      672  8 64 fname=tapelev2_56_the_main_loop_apressure0
(PID.TID 0000.0001) ADWRITE:  tapeFileCounter =   360
(PID.TID 0000.0001) ADWRITE: tid,vid, irec, length, prec(x2)=    41    57     2      672  8 64 fname=tapelev2_57_the_main_loop_apressure1
(PID.TID 0000.0001) ADWRITE:  tapeFileCounter =   361
(PID.TID 0000.0001) ADWRITE: tid,vid, irec, length, prec(x2)=    41    58     2      672  8 64 fname=tapelev2_58_the_main_loop_siceload
(PID.TID 0000.0001) ADWRITE:  tapeFileCounter =   362
(PID.TID 0000.0001) ADWRITE: tid,vid, irec, length, prec(x2)=    41    59     2      672  8 64 fname=tapelev2_59_the_main_loop_climsss0
(PID.TID 0000.0001) ADWRITE:  tapeFileCounter =   363
(PID.TID 0000.0001) ADWRITE: tid,vid, irec, length, prec(x2)=    41    60     2      672  8 64 fname=tapelev2_60_the_main_loop_climsss1
(PID.TID 0000.0001) ADWRITE:  tapeFileCounter =   364
(PID.TID 0000.0001) ADWRITE: tid,vid, irec, length, prec(x2)=    41    61     2      672  8 64 fname=tapelev2_61_the_main_loop_climsst0
(PID.TID 0000.0001) ADWRITE:  tapeFileCounter =   365
(PID.TID 0000.0001) ADWRITE: tid,vid, irec, length, prec(x2)=    41    62     2      672  8 64 fname=tapelev2_62_the_main_loop_climsst1
(PID.TID 0000.0001) ADWRITE:  tapeFileCounter =   366
(PID.TID 0000.0001) ADWRITE: tid,vid, irec, length, prec(x2)=    41    63     2      672  8 64 fname=tapelev2_63_the_main_loop_saltflx0
(PID.TID 0000.0001) ADWRITE:  tapeFileCounter =   367
(PID.TID 0000.0001) ADWRITE: tid,vid, irec, length, prec(x2)=    41    64     2      672  8 64 fname=tapelev2_64_the_main_loop_saltflx1
(PID.TID 0000.0001) ADWRITE:  tapeFileCounter =   368
(PID.TID 0000.0001) ADWRITE: tid,vid, irec, length, prec(x2)=    41    65     2      672  8 64 fname=tapelev2_65_the_main_loop_aqh0
(PID.TID 0000.0001) ADWRITE:  tapeFileCounter =   369
(PID.TID 0000.0001) ADWRITE: tid,vid, irec, length, prec(x2)=    41    66     2      672  8 64 fname=tapelev2_66_the_main_loop_aqh1
(PID.TID 0000.0001) ADWRITE:  tapeFileCounter =   370
(PID.TID 0000.0001) ADWRITE: tid,vid, irec, length, prec(x2)=    41    67     2      672  8 64 fname=tapelev2_67_the_main_loop_atemp0
(PID.TID 0000.0001) ADWRITE:  tapeFileCounter =   371
(PID.TID 0000.0001) ADWRITE: tid,vid, irec, length, prec(x2)=    41    68     2      672  8 64 fname=tapelev2_68_the_main_loop_atemp1
(PID.TID 0000.0001) ADWRITE:  tapeFileCounter =   372
(PID.TID 0000.0001) ADWRITE: tid,vid, irec, length, prec(x2)=    41    69     2      672  8 64 fname=tapelev2_69_the_main_loop_precip0
(PID.TID 0000.0001) ADWRITE:  tapeFileCounter =   373
(PID.TID 0000.0001) ADWRITE: tid,vid, irec, length, prec(x2)=    41    70     2      672  8 64 fname=tapelev2_70_the_main_loop_precip1
(PID.TID 0000.0001) ADWRITE:  tapeFileCounter =   374
(PID.TID 0000.0001) ADWRITE: tid,vid, irec, length, prec(x2)=    41    73     2      672  8 64 fname=tapelev2_73_the_main_loop_snowprecip0
(PID.TID 0000.0001) ADWRITE:  tapeFileCounter =   375
(PID.TID 0000.0001) ADWRITE: tid,vid, irec, length, prec(x2)=    41    74     2      672  8 64 fname=tapelev2_74_the_main_loop_snowprecip1
(PID.TID 0000.0001) ADWRITE:  tapeFileCounter =   376
(PID.TID 0000.0001) ADWRITE: tid,vid, irec, length, prec(x2)=    41    75     2      672  8 64 fname=tapelev2_75_the_main_loop_swdown0
(PID.TID 0000.0001) ADWRITE:  tapeFileCounter =   377
(PID.TID 0000.0001) ADWRITE: tid,vid, irec, length, prec(x2)=    41    76     2      672  8 64 fname=tapelev2_76_the_main_loop_swdown1
(PID.TID 0000.0001) ADWRITE:  tapeFileCounter =   378
(PID.TID 0000.0001) ADWRITE: tid,vid, irec, length, prec(x2)=    41    77     2      672  8 64 fname=tapelev2_77_the_main_loop_lwdown0
(PID.TID 0000.0001) ADWRITE:  tapeFileCounter =   379
(PID.TID 0000.0001) ADWRITE: tid,vid, irec, length, prec(x2)=    41    78     2      672  8 64 fname=tapelev2_78_the_main_loop_lwdown1
(PID.TID 0000.0001) ADWRITE:  tapeFileCounter =   380
(PID.TID 0000.0001) ADWRITE: tid,vid, irec, length, prec(x2)=    41    79     2      672  8 64 fname=tapelev2_79_the_main_loop_uwind0
(PID.TID 0000.0001) ADWRITE:  tapeFileCounter =   381
(PID.TID 0000.0001) ADWRITE: tid,vid, irec, length, prec(x2)=    41    80     2      672  8 64 fname=tapelev2_80_the_main_loop_uwind1
(PID.TID 0000.0001) ADWRITE:  tapeFileCounter =   382
(PID.TID 0000.0001) ADWRITE: tid,vid, irec, length, prec(x2)=    41    81     2      672  8 64 fname=tapelev2_81_the_main_loop_vwind0
(PID.TID 0000.0001) ADWRITE:  tapeFileCounter =   383
(PID.TID 0000.0001) ADWRITE: tid,vid, irec, length, prec(x2)=    41    82     2      672  8 64 fname=tapelev2_82_the_main_loop_vwind1
(PID.TID 0000.0001) ADWRITE:  tapeFileCounter =   384
(PID.TID 0000.0001) ADWRITE: tid,vid, irec, length, prec(x2)=    41    83     2     6048  8 64 fname=tapelev2_83_the_main_loop_xx_gentim2d
(PID.TID 0000.0001) ADWRITE:  tapeFileCounter =   385
(PID.TID 0000.0001) ADWRITE:  tapeFileCounter =   386
(PID.TID 0000.0001) ADWRITE:  tapeFileCounter =   387
(PID.TID 0000.0001) ADWRITE:  tapeFileCounter =   388
(PID.TID 0000.0001) ADWRITE:  tapeFileCounter =   389
(PID.TID 0000.0001) ADWRITE:  tapeFileCounter =   390
(PID.TID 0000.0001) ADWRITE:  tapeFileCounter =   391
(PID.TID 0000.0001) ADWRITE:  tapeFileCounter =   392
(PID.TID 0000.0001) ADWRITE:  tapeFileCounter =   393
(PID.TID 0000.0001) ADWRITE: tid,vid, irec, length, prec(x2)=    41    84     2     6048  8 64 fname=tapelev2_84_the_main_loop_xx_gentim2d0
(PID.TID 0000.0001) ADWRITE:  tapeFileCounter =   394
(PID.TID 0000.0001) ADWRITE:  tapeFileCounter =   395
(PID.TID 0000.0001) ADWRITE:  tapeFileCounter =   396
(PID.TID 0000.0001) ADWRITE:  tapeFileCounter =   397
(PID.TID 0000.0001) ADWRITE:  tapeFileCounter =   398
(PID.TID 0000.0001) ADWRITE:  tapeFileCounter =   399
(PID.TID 0000.0001) ADWRITE:  tapeFileCounter =   400
(PID.TID 0000.0001) ADWRITE:  tapeFileCounter =   401
(PID.TID 0000.0001) ADWRITE:  tapeFileCounter =   402
(PID.TID 0000.0001) ADWRITE: tid,vid, irec, length, prec(x2)=    41    85     2     6048  8 64 fname=tapelev2_85_the_main_loop_xx_gentim2d1
(PID.TID 0000.0001) ADWRITE:  tapeFileCounter =   403
(PID.TID 0000.0001) ADWRITE:  tapeFileCounter =   404
(PID.TID 0000.0001) ADWRITE:  tapeFileCounter =   405
(PID.TID 0000.0001) ADWRITE:  tapeFileCounter =   406
(PID.TID 0000.0001) ADWRITE:  tapeFileCounter =   407
(PID.TID 0000.0001) ADWRITE:  tapeFileCounter =   408
(PID.TID 0000.0001) ADWRITE:  tapeFileCounter =   409
(PID.TID 0000.0001) ADWRITE:  tapeFileCounter =   410
(PID.TID 0000.0001) ADWRITE:  tapeFileCounter =   411
(PID.TID 0000.0001) ADWRITE: tid,vid, irec, length, prec(x2)=    41    87     2      672  8 64 fname=tapelev2_87_the_main_loop_phihydlow
(PID.TID 0000.0001) ADWRITE:  tapeFileCounter =   412
(PID.TID 0000.0001) ADWRITE: tid,vid, irec, length, prec(x2)=    41    88     2      672  8 64 fname=tapelev2_88_the_main_loop_area
(PID.TID 0000.0001) ADWRITE:  tapeFileCounter =   413
(PID.TID 0000.0001) ADWRITE: tid,vid, irec, length, prec(x2)=    41    89     2      672  8 64 fname=tapelev2_89_the_main_loop_heff
(PID.TID 0000.0001) ADWRITE:  tapeFileCounter =   414
(PID.TID 0000.0001) ADWRITE: tid,vid, irec, length, prec(x2)=    41    90     2      672  8 64 fname=tapelev2_90_the_main_loop_hsnow
(PID.TID 0000.0001) ADWRITE:  tapeFileCounter =   415
(PID.TID 0000.0001) ADWRITE: tid,vid, irec, length, prec(x2)=    41    92     2      672  8 64 fname=tapelev2_92_the_main_loop_uice
(PID.TID 0000.0001) ADWRITE:  tapeFileCounter =   416
(PID.TID 0000.0001) ADWRITE: tid,vid, irec, length, prec(x2)=    41    93     2      672  8 64 fname=tapelev2_93_the_main_loop_vice
(PID.TID 0000.0001) ADWRITE:  tapeFileCounter =   417
(PID.TID 0000.0001) ADWRITE: tid,vid, irec, length, prec(x2)=    41    96     2     4704  8 64 fname=tapelev2_96_the_main_loop_tices
(PID.TID 0000.0001) ADWRITE:  tapeFileCounter =   418
(PID.TID 0000.0001) ADWRITE:  tapeFileCounter =   419
(PID.TID 0000.0001) ADWRITE:  tapeFileCounter =   420
(PID.TID 0000.0001) ADWRITE:  tapeFileCounter =   421
(PID.TID 0000.0001) ADWRITE:  tapeFileCounter =   422
(PID.TID 0000.0001) ADWRITE:  tapeFileCounter =   423
(PID.TID 0000.0001) ADWRITE:  tapeFileCounter =   424
(PID.TID 0000.0001) ADWRITE: tid,vid, irec, length, prec(x2)=    41    97     2      672  8 64 fname=tapelev2_97_the_main_loop_dwatn
(PID.TID 0000.0001) ADWRITE:  tapeFileCounter =   425
(PID.TID 0000.0001) ADWRITE: tid,vid, irec, length, prec(x2)=    41    98     2      672  8 64 fname=tapelev2_98_the_main_loop_stressdivergencex
(PID.TID 0000.0001) ADWRITE:  tapeFileCounter =   426
(PID.TID 0000.0001) ADWRITE: tid,vid, irec, length, prec(x2)=    41    99     2      672  8 64 fname=tapelev2_99_the_main_loop_stressdivergencey
(PID.TID 0000.0001) ADWRITE:  tapeFileCounter =   427
(PID.TID 0000.0001) ADWRITE: tid,vid, irec, length, prec(x2)=    41   100     2      672  8 64 fname=tapelev2_100_the_main_loop_seaice_sigma1
(PID.TID 0000.0001) ADWRITE:  tapeFileCounter =   428
(PID.TID 0000.0001) ADWRITE: tid,vid, irec, length, prec(x2)=    41   101     2      672  8 64 fname=tapelev2_101_the_main_loop_seaice_sigma2
(PID.TID 0000.0001) ADWRITE:  tapeFileCounter =   429
(PID.TID 0000.0001) ADWRITE: tid,vid, irec, length, prec(x2)=    41   102     2      672  8 64 fname=tapelev2_102_the_main_loop_seaice_sigma12
(PID.TID 0000.0001) ADWRITE:  tapeFileCounter =   430
(PID.TID 0000.0001) ADWRITE: tid,vid, irec, length, prec(x2)=    41   103     2      672  8 64 fname=tapelev2_103_the_main_loop_hsalt
(PID.TID 0000.0001) ADWRITE:  tapeFileCounter =   431
(PID.TID 0000.0001) whio : write lev 2 rec   2
(PID.TID 0000.0001) ADREAD:  tid,vid, irec, length, prec(x2)=    41     1     2      672  8 64 fname=tapelev2_1_the_main_loop_etan
(PID.TID 0000.0001) ADREAD:  tid,vid, irec, length, prec(x2)=    41     2     2      672  8 64 fname=tapelev2_2_the_main_loop_taux0
(PID.TID 0000.0001) ADREAD:  tid,vid, irec, length, prec(x2)=    41     3     2      672  8 64 fname=tapelev2_3_the_main_loop_taux1
(PID.TID 0000.0001) ADREAD:  tid,vid, irec, length, prec(x2)=    41     4     2      672  8 64 fname=tapelev2_4_the_main_loop_tauy0
(PID.TID 0000.0001) ADREAD:  tid,vid, irec, length, prec(x2)=    41     5     2      672  8 64 fname=tapelev2_5_the_main_loop_tauy1
(PID.TID 0000.0001) ADREAD:  tid,vid, irec, length, prec(x2)=    41     6     2      672  8 64 fname=tapelev2_6_the_main_loop_qnet0
(PID.TID 0000.0001) ADREAD:  tid,vid, irec, length, prec(x2)=    41     7     2      672  8 64 fname=tapelev2_7_the_main_loop_qnet1
(PID.TID 0000.0001) ADREAD:  tid,vid, irec, length, prec(x2)=    41     8     2      672  8 64 fname=tapelev2_8_the_main_loop_empmr0
(PID.TID 0000.0001) ADREAD:  tid,vid, irec, length, prec(x2)=    41     9     2      672  8 64 fname=tapelev2_9_the_main_loop_empmr1
(PID.TID 0000.0001) ADREAD:  tid,vid, irec, length, prec(x2)=    41    10     2      672  8 64 fname=tapelev2_10_the_main_loop_sst0
(PID.TID 0000.0001) ADREAD:  tid,vid, irec, length, prec(x2)=    41    11     2      672  8 64 fname=tapelev2_11_the_main_loop_sst1
(PID.TID 0000.0001) ADREAD:  tid,vid, irec, length, prec(x2)=    41    12     2      672  8 64 fname=tapelev2_12_the_main_loop_sss0
(PID.TID 0000.0001) ADREAD:  tid,vid, irec, length, prec(x2)=    41    13     2      672  8 64 fname=tapelev2_13_the_main_loop_sss1
(PID.TID 0000.0001) ADREAD:  tid,vid, irec, length, prec(x2)=    41    14     2      672  8 64 fname=tapelev2_14_the_main_loop_saltflux0
(PID.TID 0000.0001) ADREAD:  tid,vid, irec, length, prec(x2)=    41    15     2      672  8 64 fname=tapelev2_15_the_main_loop_saltflux1
(PID.TID 0000.0001) ADREAD:  tid,vid, irec, length, prec(x2)=    41    16     2      672  8 64 fname=tapelev2_16_the_main_loop_qsw0
(PID.TID 0000.0001) ADREAD:  tid,vid, irec, length, prec(x2)=    41    17     2      672  8 64 fname=tapelev2_17_the_main_loop_qsw1
(PID.TID 0000.0001) ADREAD:  tid,vid, irec, length, prec(x2)=    41    18     2      672  8 64 fname=tapelev2_18_the_main_loop_pload0
(PID.TID 0000.0001) ADREAD:  tid,vid, irec, length, prec(x2)=    41    19     2      672  8 64 fname=tapelev2_19_the_main_loop_pload1
(PID.TID 0000.0001) ADREAD:  tid,vid, irec, length, prec(x2)=    41    20     2      672  8 64 fname=tapelev2_20_the_main_loop_etah
(PID.TID 0000.0001) ADREAD:  tid,vid, irec, length, prec(x2)=    41    21     2      672  8 64 fname=tapelev2_21_the_main_loop_detahdt
(PID.TID 0000.0001) ADREAD:  tid,vid, irec, length, prec(x2)=    41    22     2      672  8 64 fname=tapelev2_22_the_main_loop_pmepr
(PID.TID 0000.0001) ADREAD:  tid,vid, irec, length, prec(x2)=    41    23     2    15456  8 64 fname=tapelev2_23_the_main_loop_gtnm1
(PID.TID 0000.0001) ADREAD:  tid,vid, irec, length, prec(x2)=    41    24     2    15456  8 64 fname=tapelev2_24_the_main_loop_gsnm1
(PID.TID 0000.0001) ADREAD:  tid,vid, irec, length, prec(x2)=    41    25     2    15456  8 64 fname=tapelev2_25_the_main_loop_gunm1
(PID.TID 0000.0001) ADREAD:  tid,vid, irec, length, prec(x2)=    41    26     2    15456  8 64 fname=tapelev2_26_the_main_loop_gvnm1
(PID.TID 0000.0001) ADREAD:  tid,vid, irec, length, prec(x2)=    41    27     2    15456  8 64 fname=tapelev2_27_the_main_loop_theta
(PID.TID 0000.0001) ADREAD:  tid,vid, irec, length, prec(x2)=    41    28     2    15456  8 64 fname=tapelev2_28_the_main_loop_salt
(PID.TID 0000.0001) ADREAD:  tid,vid, irec, length, prec(x2)=    41    29     2    15456  8 64 fname=tapelev2_29_the_main_loop_uvel
(PID.TID 0000.0001) ADREAD:  tid,vid, irec, length, prec(x2)=    41    30     2    15456  8 64 fname=tapelev2_30_the_main_loop_vvel
(PID.TID 0000.0001) ADREAD:  tid,vid, irec, length, prec(x2)=    41    31     2    15456  8 64 fname=tapelev2_31_the_main_loop_wvel
(PID.TID 0000.0001) ADREAD:  tid,vid, irec, length, prec(x2)=    41    32     2    15456  8 64 fname=tapelev2_32_the_main_loop_totphihyd
(PID.TID 0000.0001) ADREAD:  tid,vid, irec, length, prec(x2)=    41    35     2    15456  8 64 fname=tapelev2_35_the_main_loop_uveld
(PID.TID 0000.0001) ADREAD:  tid,vid, irec, length, prec(x2)=    41    36     2    15456  8 64 fname=tapelev2_36_the_main_loop_vveld
(PID.TID 0000.0001) ADREAD:  tid,vid, irec, length, prec(x2)=    41    37     2      672  8 64 fname=tapelev2_37_the_main_loop_etanm1
(PID.TID 0000.0001) ADREAD:  tid,vid, irec, length, prec(x2)=    41    38     2    15456  8 64 fname=tapelev2_38_the_main_loop_unm1
(PID.TID 0000.0001) ADREAD:  tid,vid, irec, length, prec(x2)=    41    39     2    15456  8 64 fname=tapelev2_39_the_main_loop_vnm1
(PID.TID 0000.0001) ADREAD:  tid,vid, irec, length, prec(x2)=    41    40     2      672  8 64 fname=tapelev2_40_the_main_loop_areamask0
(PID.TID 0000.0001) ADREAD:  tid,vid, irec, length, prec(x2)=    41    41     2      672  8 64 fname=tapelev2_41_the_main_loop_areamask1
(PID.TID 0000.0001) ADREAD:  tid,vid, irec, length, prec(x2)=    41    42     2      672  8 64 fname=tapelev2_42_the_main_loop_hflux0
(PID.TID 0000.0001) ADREAD:  tid,vid, irec, length, prec(x2)=    41    43     2      672  8 64 fname=tapelev2_43_the_main_loop_hflux1
(PID.TID 0000.0001) ADREAD:  tid,vid, irec, length, prec(x2)=    41    44     2      672  8 64 fname=tapelev2_44_the_main_loop_sflux0
(PID.TID 0000.0001) ADREAD:  tid,vid, irec, length, prec(x2)=    41    45     2      672  8 64 fname=tapelev2_45_the_main_loop_sflux1
(PID.TID 0000.0001) ADREAD:  tid,vid, irec, length, prec(x2)=    41    46     2      672  8 64 fname=tapelev2_46_the_main_loop_ustress0
(PID.TID 0000.0001) ADREAD:  tid,vid, irec, length, prec(x2)=    41    47     2      672  8 64 fname=tapelev2_47_the_main_loop_ustress1
(PID.TID 0000.0001) ADREAD:  tid,vid, irec, length, prec(x2)=    41    48     2      672  8 64 fname=tapelev2_48_the_main_loop_vstress0
(PID.TID 0000.0001) ADREAD:  tid,vid, irec, length, prec(x2)=    41    49     2      672  8 64 fname=tapelev2_49_the_main_loop_vstress1
(PID.TID 0000.0001) ADREAD:  tid,vid, irec, length, prec(x2)=    41    50     2      672  8 64 fname=tapelev2_50_the_main_loop_wspeed0
(PID.TID 0000.0001) ADREAD:  tid,vid, irec, length, prec(x2)=    41    51     2      672  8 64 fname=tapelev2_51_the_main_loop_wspeed1
(PID.TID 0000.0001) ADREAD:  tid,vid, irec, length, prec(x2)=    41    54     2      672  8 64 fname=tapelev2_54_the_main_loop_runoff0
(PID.TID 0000.0001) ADREAD:  tid,vid, irec, length, prec(x2)=    41    55     2      672  8 64 fname=tapelev2_55_the_main_loop_runoff1
(PID.TID 0000.0001) ADREAD:  tid,vid, irec, length, prec(x2)=    41    56     2      672  8 64 fname=tapelev2_56_the_main_loop_apressure0
(PID.TID 0000.0001) ADREAD:  tid,vid, irec, length, prec(x2)=    41    57     2      672  8 64 fname=tapelev2_57_the_main_loop_apressure1
(PID.TID 0000.0001) ADREAD:  tid,vid, irec, length, prec(x2)=    41    58     2      672  8 64 fname=tapelev2_58_the_main_loop_siceload
(PID.TID 0000.0001) ADREAD:  tid,vid, irec, length, prec(x2)=    41    59     2      672  8 64 fname=tapelev2_59_the_main_loop_climsss0
(PID.TID 0000.0001) ADREAD:  tid,vid, irec, length, prec(x2)=    41    60     2      672  8 64 fname=tapelev2_60_the_main_loop_climsss1
(PID.TID 0000.0001) ADREAD:  tid,vid, irec, length, prec(x2)=    41    61     2      672  8 64 fname=tapelev2_61_the_main_loop_climsst0
(PID.TID 0000.0001) ADREAD:  tid,vid, irec, length, prec(x2)=    41    62     2      672  8 64 fname=tapelev2_62_the_main_loop_climsst1
(PID.TID 0000.0001) ADREAD:  tid,vid, irec, length, prec(x2)=    41    63     2      672  8 64 fname=tapelev2_63_the_main_loop_saltflx0
(PID.TID 0000.0001) ADREAD:  tid,vid, irec, length, prec(x2)=    41    64     2      672  8 64 fname=tapelev2_64_the_main_loop_saltflx1
(PID.TID 0000.0001) ADREAD:  tid,vid, irec, length, prec(x2)=    41    65     2      672  8 64 fname=tapelev2_65_the_main_loop_aqh0
(PID.TID 0000.0001) ADREAD:  tid,vid, irec, length, prec(x2)=    41    66     2      672  8 64 fname=tapelev2_66_the_main_loop_aqh1
(PID.TID 0000.0001) ADREAD:  tid,vid, irec, length, prec(x2)=    41    67     2      672  8 64 fname=tapelev2_67_the_main_loop_atemp0
(PID.TID 0000.0001) ADREAD:  tid,vid, irec, length, prec(x2)=    41    68     2      672  8 64 fname=tapelev2_68_the_main_loop_atemp1
(PID.TID 0000.0001) ADREAD:  tid,vid, irec, length, prec(x2)=    41    69     2      672  8 64 fname=tapelev2_69_the_main_loop_precip0
(PID.TID 0000.0001) ADREAD:  tid,vid, irec, length, prec(x2)=    41    70     2      672  8 64 fname=tapelev2_70_the_main_loop_precip1
(PID.TID 0000.0001) ADREAD:  tid,vid, irec, length, prec(x2)=    41    73     2      672  8 64 fname=tapelev2_73_the_main_loop_snowprecip0
(PID.TID 0000.0001) ADREAD:  tid,vid, irec, length, prec(x2)=    41    74     2      672  8 64 fname=tapelev2_74_the_main_loop_snowprecip1
(PID.TID 0000.0001) ADREAD:  tid,vid, irec, length, prec(x2)=    41    75     2      672  8 64 fname=tapelev2_75_the_main_loop_swdown0
(PID.TID 0000.0001) ADREAD:  tid,vid, irec, length, prec(x2)=    41    76     2      672  8 64 fname=tapelev2_76_the_main_loop_swdown1
(PID.TID 0000.0001) ADREAD:  tid,vid, irec, length, prec(x2)=    41    77     2      672  8 64 fname=tapelev2_77_the_main_loop_lwdown0
(PID.TID 0000.0001) ADREAD:  tid,vid, irec, length, prec(x2)=    41    78     2      672  8 64 fname=tapelev2_78_the_main_loop_lwdown1
(PID.TID 0000.0001) ADREAD:  tid,vid, irec, length, prec(x2)=    41    79     2      672  8 64 fname=tapelev2_79_the_main_loop_uwind0
(PID.TID 0000.0001) ADREAD:  tid,vid, irec, length, prec(x2)=    41    80     2      672  8 64 fname=tapelev2_80_the_main_loop_uwind1
(PID.TID 0000.0001) ADREAD:  tid,vid, irec, length, prec(x2)=    41    81     2      672  8 64 fname=tapelev2_81_the_main_loop_vwind0
(PID.TID 0000.0001) ADREAD:  tid,vid, irec, length, prec(x2)=    41    82     2      672  8 64 fname=tapelev2_82_the_main_loop_vwind1
(PID.TID 0000.0001) ADREAD:  tid,vid, irec, length, prec(x2)=    41    83     2     6048  8 64 fname=tapelev2_83_the_main_loop_xx_gentim2d
(PID.TID 0000.0001) ADREAD:  tid,vid, irec, length, prec(x2)=    41    84     2     6048  8 64 fname=tapelev2_84_the_main_loop_xx_gentim2d0
(PID.TID 0000.0001) ADREAD:  tid,vid, irec, length, prec(x2)=    41    85     2     6048  8 64 fname=tapelev2_85_the_main_loop_xx_gentim2d1
(PID.TID 0000.0001) ADREAD:  tid,vid, irec, length, prec(x2)=    41    87     2      672  8 64 fname=tapelev2_87_the_main_loop_phihydlow
(PID.TID 0000.0001) ADREAD:  tid,vid, irec, length, prec(x2)=    41    88     2      672  8 64 fname=tapelev2_88_the_main_loop_area
(PID.TID 0000.0001) ADREAD:  tid,vid, irec, length, prec(x2)=    41    89     2      672  8 64 fname=tapelev2_89_the_main_loop_heff
(PID.TID 0000.0001) ADREAD:  tid,vid, irec, length, prec(x2)=    41    90     2      672  8 64 fname=tapelev2_90_the_main_loop_hsnow
(PID.TID 0000.0001) ADREAD:  tid,vid, irec, length, prec(x2)=    41    92     2      672  8 64 fname=tapelev2_92_the_main_loop_uice
(PID.TID 0000.0001) ADREAD:  tid,vid, irec, length, prec(x2)=    41    93     2      672  8 64 fname=tapelev2_93_the_main_loop_vice
(PID.TID 0000.0001) ADREAD:  tid,vid, irec, length, prec(x2)=    41    96     2     4704  8 64 fname=tapelev2_96_the_main_loop_tices
(PID.TID 0000.0001) ADREAD:  tid,vid, irec, length, prec(x2)=    41    97     2      672  8 64 fname=tapelev2_97_the_main_loop_dwatn
(PID.TID 0000.0001) ADREAD:  tid,vid, irec, length, prec(x2)=    41    98     2      672  8 64 fname=tapelev2_98_the_main_loop_stressdivergencex
(PID.TID 0000.0001) ADREAD:  tid,vid, irec, length, prec(x2)=    41    99     2      672  8 64 fname=tapelev2_99_the_main_loop_stressdivergencey
(PID.TID 0000.0001) ADREAD:  tid,vid, irec, length, prec(x2)=    41   100     2      672  8 64 fname=tapelev2_100_the_main_loop_seaice_sigma1
(PID.TID 0000.0001) ADREAD:  tid,vid, irec, length, prec(x2)=    41   101     2      672  8 64 fname=tapelev2_101_the_main_loop_seaice_sigma2
(PID.TID 0000.0001) ADREAD:  tid,vid, irec, length, prec(x2)=    41   102     2      672  8 64 fname=tapelev2_102_the_main_loop_seaice_sigma12
(PID.TID 0000.0001) ADREAD:  tid,vid, irec, length, prec(x2)=    41   103     2      672  8 64 fname=tapelev2_103_the_main_loop_hsalt
(PID.TID 0000.0001) ADREAD:  tid,vid, irec, length, prec(x2)=    41     1     1      672  8 64 fname=tapelev2_1_the_main_loop_etan
(PID.TID 0000.0001) ADREAD:  tid,vid, irec, length, prec(x2)=    41     2     1      672  8 64 fname=tapelev2_2_the_main_loop_taux0
(PID.TID 0000.0001) ADREAD:  tid,vid, irec, length, prec(x2)=    41     3     1      672  8 64 fname=tapelev2_3_the_main_loop_taux1
(PID.TID 0000.0001) ADREAD:  tid,vid, irec, length, prec(x2)=    41     4     1      672  8 64 fname=tapelev2_4_the_main_loop_tauy0
(PID.TID 0000.0001) ADREAD:  tid,vid, irec, length, prec(x2)=    41     5     1      672  8 64 fname=tapelev2_5_the_main_loop_tauy1
(PID.TID 0000.0001) ADREAD:  tid,vid, irec, length, prec(x2)=    41     6     1      672  8 64 fname=tapelev2_6_the_main_loop_qnet0
(PID.TID 0000.0001) ADREAD:  tid,vid, irec, length, prec(x2)=    41     7     1      672  8 64 fname=tapelev2_7_the_main_loop_qnet1
(PID.TID 0000.0001) ADREAD:  tid,vid, irec, length, prec(x2)=    41     8     1      672  8 64 fname=tapelev2_8_the_main_loop_empmr0
(PID.TID 0000.0001) ADREAD:  tid,vid, irec, length, prec(x2)=    41     9     1      672  8 64 fname=tapelev2_9_the_main_loop_empmr1
(PID.TID 0000.0001) ADREAD:  tid,vid, irec, length, prec(x2)=    41    10     1      672  8 64 fname=tapelev2_10_the_main_loop_sst0
(PID.TID 0000.0001) ADREAD:  tid,vid, irec, length, prec(x2)=    41    11     1      672  8 64 fname=tapelev2_11_the_main_loop_sst1
(PID.TID 0000.0001) ADREAD:  tid,vid, irec, length, prec(x2)=    41    12     1      672  8 64 fname=tapelev2_12_the_main_loop_sss0
(PID.TID 0000.0001) ADREAD:  tid,vid, irec, length, prec(x2)=    41    13     1      672  8 64 fname=tapelev2_13_the_main_loop_sss1
(PID.TID 0000.0001) ADREAD:  tid,vid, irec, length, prec(x2)=    41    14     1      672  8 64 fname=tapelev2_14_the_main_loop_saltflux0
(PID.TID 0000.0001) ADREAD:  tid,vid, irec, length, prec(x2)=    41    15     1      672  8 64 fname=tapelev2_15_the_main_loop_saltflux1
(PID.TID 0000.0001) ADREAD:  tid,vid, irec, length, prec(x2)=    41    16     1      672  8 64 fname=tapelev2_16_the_main_loop_qsw0
(PID.TID 0000.0001) ADREAD:  tid,vid, irec, length, prec(x2)=    41    17     1      672  8 64 fname=tapelev2_17_the_main_loop_qsw1
(PID.TID 0000.0001) ADREAD:  tid,vid, irec, length, prec(x2)=    41    18     1      672  8 64 fname=tapelev2_18_the_main_loop_pload0
(PID.TID 0000.0001) ADREAD:  tid,vid, irec, length, prec(x2)=    41    19     1      672  8 64 fname=tapelev2_19_the_main_loop_pload1
(PID.TID 0000.0001) ADREAD:  tid,vid, irec, length, prec(x2)=    41    20     1      672  8 64 fname=tapelev2_20_the_main_loop_etah
(PID.TID 0000.0001) ADREAD:  tid,vid, irec, length, prec(x2)=    41    21     1      672  8 64 fname=tapelev2_21_the_main_loop_detahdt
(PID.TID 0000.0001) ADREAD:  tid,vid, irec, length, prec(x2)=    41    22     1      672  8 64 fname=tapelev2_22_the_main_loop_pmepr
(PID.TID 0000.0001) ADREAD:  tid,vid, irec, length, prec(x2)=    41    23     1    15456  8 64 fname=tapelev2_23_the_main_loop_gtnm1
(PID.TID 0000.0001) ADREAD:  tid,vid, irec, length, prec(x2)=    41    24     1    15456  8 64 fname=tapelev2_24_the_main_loop_gsnm1
(PID.TID 0000.0001) ADREAD:  tid,vid, irec, length, prec(x2)=    41    25     1    15456  8 64 fname=tapelev2_25_the_main_loop_gunm1
(PID.TID 0000.0001) ADREAD:  tid,vid, irec, length, prec(x2)=    41    26     1    15456  8 64 fname=tapelev2_26_the_main_loop_gvnm1
(PID.TID 0000.0001) ADREAD:  tid,vid, irec, length, prec(x2)=    41    27     1    15456  8 64 fname=tapelev2_27_the_main_loop_theta
(PID.TID 0000.0001) ADREAD:  tid,vid, irec, length, prec(x2)=    41    28     1    15456  8 64 fname=tapelev2_28_the_main_loop_salt
(PID.TID 0000.0001) ADREAD:  tid,vid, irec, length, prec(x2)=    41    29     1    15456  8 64 fname=tapelev2_29_the_main_loop_uvel
(PID.TID 0000.0001) ADREAD:  tid,vid, irec, length, prec(x2)=    41    30     1    15456  8 64 fname=tapelev2_30_the_main_loop_vvel
(PID.TID 0000.0001) ADREAD:  tid,vid, irec, length, prec(x2)=    41    31     1    15456  8 64 fname=tapelev2_31_the_main_loop_wvel
(PID.TID 0000.0001) ADREAD:  tid,vid, irec, length, prec(x2)=    41    32     1    15456  8 64 fname=tapelev2_32_the_main_loop_totphihyd
(PID.TID 0000.0001) ADREAD:  tid,vid, irec, length, prec(x2)=    41    35     1    15456  8 64 fname=tapelev2_35_the_main_loop_uveld
(PID.TID 0000.0001) ADREAD:  tid,vid, irec, length, prec(x2)=    41    36     1    15456  8 64 fname=tapelev2_36_the_main_loop_vveld
(PID.TID 0000.0001) ADREAD:  tid,vid, irec, length, prec(x2)=    41    37     1      672  8 64 fname=tapelev2_37_the_main_loop_etanm1
(PID.TID 0000.0001) ADREAD:  tid,vid, irec, length, prec(x2)=    41    38     1    15456  8 64 fname=tapelev2_38_the_main_loop_unm1
(PID.TID 0000.0001) ADREAD:  tid,vid, irec, length, prec(x2)=    41    39     1    15456  8 64 fname=tapelev2_39_the_main_loop_vnm1
(PID.TID 0000.0001) ADREAD:  tid,vid, irec, length, prec(x2)=    41    40     1      672  8 64 fname=tapelev2_40_the_main_loop_areamask0
(PID.TID 0000.0001) ADREAD:  tid,vid, irec, length, prec(x2)=    41    41     1      672  8 64 fname=tapelev2_41_the_main_loop_areamask1
(PID.TID 0000.0001) ADREAD:  tid,vid, irec, length, prec(x2)=    41    42     1      672  8 64 fname=tapelev2_42_the_main_loop_hflux0
(PID.TID 0000.0001) ADREAD:  tid,vid, irec, length, prec(x2)=    41    43     1      672  8 64 fname=tapelev2_43_the_main_loop_hflux1
(PID.TID 0000.0001) ADREAD:  tid,vid, irec, length, prec(x2)=    41    44     1      672  8 64 fname=tapelev2_44_the_main_loop_sflux0
(PID.TID 0000.0001) ADREAD:  tid,vid, irec, length, prec(x2)=    41    45     1      672  8 64 fname=tapelev2_45_the_main_loop_sflux1
(PID.TID 0000.0001) ADREAD:  tid,vid, irec, length, prec(x2)=    41    46     1      672  8 64 fname=tapelev2_46_the_main_loop_ustress0
(PID.TID 0000.0001) ADREAD:  tid,vid, irec, length, prec(x2)=    41    47     1      672  8 64 fname=tapelev2_47_the_main_loop_ustress1
(PID.TID 0000.0001) ADREAD:  tid,vid, irec, length, prec(x2)=    41    48     1      672  8 64 fname=tapelev2_48_the_main_loop_vstress0
(PID.TID 0000.0001) ADREAD:  tid,vid, irec, length, prec(x2)=    41    49     1      672  8 64 fname=tapelev2_49_the_main_loop_vstress1
(PID.TID 0000.0001) ADREAD:  tid,vid, irec, length, prec(x2)=    41    50     1      672  8 64 fname=tapelev2_50_the_main_loop_wspeed0
(PID.TID 0000.0001) ADREAD:  tid,vid, irec, length, prec(x2)=    41    51     1      672  8 64 fname=tapelev2_51_the_main_loop_wspeed1
(PID.TID 0000.0001) ADREAD:  tid,vid, irec, length, prec(x2)=    41    54     1      672  8 64 fname=tapelev2_54_the_main_loop_runoff0
(PID.TID 0000.0001) ADREAD:  tid,vid, irec, length, prec(x2)=    41    55     1      672  8 64 fname=tapelev2_55_the_main_loop_runoff1
(PID.TID 0000.0001) ADREAD:  tid,vid, irec, length, prec(x2)=    41    56     1      672  8 64 fname=tapelev2_56_the_main_loop_apressure0
(PID.TID 0000.0001) ADREAD:  tid,vid, irec, length, prec(x2)=    41    57     1      672  8 64 fname=tapelev2_57_the_main_loop_apressure1
(PID.TID 0000.0001) ADREAD:  tid,vid, irec, length, prec(x2)=    41    58     1      672  8 64 fname=tapelev2_58_the_main_loop_siceload
(PID.TID 0000.0001) ADREAD:  tid,vid, irec, length, prec(x2)=    41    59     1      672  8 64 fname=tapelev2_59_the_main_loop_climsss0
(PID.TID 0000.0001) ADREAD:  tid,vid, irec, length, prec(x2)=    41    60     1      672  8 64 fname=tapelev2_60_the_main_loop_climsss1
(PID.TID 0000.0001) ADREAD:  tid,vid, irec, length, prec(x2)=    41    61     1      672  8 64 fname=tapelev2_61_the_main_loop_climsst0
(PID.TID 0000.0001) ADREAD:  tid,vid, irec, length, prec(x2)=    41    62     1      672  8 64 fname=tapelev2_62_the_main_loop_climsst1
(PID.TID 0000.0001) ADREAD:  tid,vid, irec, length, prec(x2)=    41    63     1      672  8 64 fname=tapelev2_63_the_main_loop_saltflx0
(PID.TID 0000.0001) ADREAD:  tid,vid, irec, length, prec(x2)=    41    64     1      672  8 64 fname=tapelev2_64_the_main_loop_saltflx1
(PID.TID 0000.0001) ADREAD:  tid,vid, irec, length, prec(x2)=    41    65     1      672  8 64 fname=tapelev2_65_the_main_loop_aqh0
(PID.TID 0000.0001) ADREAD:  tid,vid, irec, length, prec(x2)=    41    66     1      672  8 64 fname=tapelev2_66_the_main_loop_aqh1
(PID.TID 0000.0001) ADREAD:  tid,vid, irec, length, prec(x2)=    41    67     1      672  8 64 fname=tapelev2_67_the_main_loop_atemp0
(PID.TID 0000.0001) ADREAD:  tid,vid, irec, length, prec(x2)=    41    68     1      672  8 64 fname=tapelev2_68_the_main_loop_atemp1
(PID.TID 0000.0001) ADREAD:  tid,vid, irec, length, prec(x2)=    41    69     1      672  8 64 fname=tapelev2_69_the_main_loop_precip0
(PID.TID 0000.0001) ADREAD:  tid,vid, irec, length, prec(x2)=    41    70     1      672  8 64 fname=tapelev2_70_the_main_loop_precip1
(PID.TID 0000.0001) ADREAD:  tid,vid, irec, length, prec(x2)=    41    73     1      672  8 64 fname=tapelev2_73_the_main_loop_snowprecip0
(PID.TID 0000.0001) ADREAD:  tid,vid, irec, length, prec(x2)=    41    74     1      672  8 64 fname=tapelev2_74_the_main_loop_snowprecip1
(PID.TID 0000.0001) ADREAD:  tid,vid, irec, length, prec(x2)=    41    75     1      672  8 64 fname=tapelev2_75_the_main_loop_swdown0
(PID.TID 0000.0001) ADREAD:  tid,vid, irec, length, prec(x2)=    41    76     1      672  8 64 fname=tapelev2_76_the_main_loop_swdown1
(PID.TID 0000.0001) ADREAD:  tid,vid, irec, length, prec(x2)=    41    77     1      672  8 64 fname=tapelev2_77_the_main_loop_lwdown0
(PID.TID 0000.0001) ADREAD:  tid,vid, irec, length, prec(x2)=    41    78     1      672  8 64 fname=tapelev2_78_the_main_loop_lwdown1
(PID.TID 0000.0001) ADREAD:  tid,vid, irec, length, prec(x2)=    41    79     1      672  8 64 fname=tapelev2_79_the_main_loop_uwind0
(PID.TID 0000.0001) ADREAD:  tid,vid, irec, length, prec(x2)=    41    80     1      672  8 64 fname=tapelev2_80_the_main_loop_uwind1
(PID.TID 0000.0001) ADREAD:  tid,vid, irec, length, prec(x2)=    41    81     1      672  8 64 fname=tapelev2_81_the_main_loop_vwind0
(PID.TID 0000.0001) ADREAD:  tid,vid, irec, length, prec(x2)=    41    82     1      672  8 64 fname=tapelev2_82_the_main_loop_vwind1
(PID.TID 0000.0001) ADREAD:  tid,vid, irec, length, prec(x2)=    41    83     1     6048  8 64 fname=tapelev2_83_the_main_loop_xx_gentim2d
(PID.TID 0000.0001) ADREAD:  tid,vid, irec, length, prec(x2)=    41    84     1     6048  8 64 fname=tapelev2_84_the_main_loop_xx_gentim2d0
(PID.TID 0000.0001) ADREAD:  tid,vid, irec, length, prec(x2)=    41    85     1     6048  8 64 fname=tapelev2_85_the_main_loop_xx_gentim2d1
(PID.TID 0000.0001) ADREAD:  tid,vid, irec, length, prec(x2)=    41    87     1      672  8 64 fname=tapelev2_87_the_main_loop_phihydlow
(PID.TID 0000.0001) ADREAD:  tid,vid, irec, length, prec(x2)=    41    88     1      672  8 64 fname=tapelev2_88_the_main_loop_area
(PID.TID 0000.0001) ADREAD:  tid,vid, irec, length, prec(x2)=    41    89     1      672  8 64 fname=tapelev2_89_the_main_loop_heff
(PID.TID 0000.0001) ADREAD:  tid,vid, irec, length, prec(x2)=    41    90     1      672  8 64 fname=tapelev2_90_the_main_loop_hsnow
(PID.TID 0000.0001) ADREAD:  tid,vid, irec, length, prec(x2)=    41    92     1      672  8 64 fname=tapelev2_92_the_main_loop_uice
(PID.TID 0000.0001) ADREAD:  tid,vid, irec, length, prec(x2)=    41    93     1      672  8 64 fname=tapelev2_93_the_main_loop_vice
(PID.TID 0000.0001) ADREAD:  tid,vid, irec, length, prec(x2)=    41    96     1     4704  8 64 fname=tapelev2_96_the_main_loop_tices
(PID.TID 0000.0001) ADREAD:  tid,vid, irec, length, prec(x2)=    41    97     1      672  8 64 fname=tapelev2_97_the_main_loop_dwatn
(PID.TID 0000.0001) ADREAD:  tid,vid, irec, length, prec(x2)=    41    98     1      672  8 64 fname=tapelev2_98_the_main_loop_stressdivergencex
(PID.TID 0000.0001) ADREAD:  tid,vid, irec, length, prec(x2)=    41    99     1      672  8 64 fname=tapelev2_99_the_main_loop_stressdivergencey
(PID.TID 0000.0001) ADREAD:  tid,vid, irec, length, prec(x2)=    41   100     1      672  8 64 fname=tapelev2_100_the_main_loop_seaice_sigma1
(PID.TID 0000.0001) ADREAD:  tid,vid, irec, length, prec(x2)=    41   101     1      672  8 64 fname=tapelev2_101_the_main_loop_seaice_sigma2
(PID.TID 0000.0001) ADREAD:  tid,vid, irec, length, prec(x2)=    41   102     1      672  8 64 fname=tapelev2_102_the_main_loop_seaice_sigma12
(PID.TID 0000.0001) ADREAD:  tid,vid, irec, length, prec(x2)=    41   103     1      672  8 64 fname=tapelev2_103_the_main_loop_hsalt
(PID.TID 0000.0001) ADREAD:  tid,vid, irec, length, prec(x2)=    39     1     1      672  8 64 fname=tapelev3_1_the_main_loop_etan
(PID.TID 0000.0001) ADREAD:  tid,vid, irec, length, prec(x2)=    39     2     1      672  8 64 fname=tapelev3_2_the_main_loop_taux0
(PID.TID 0000.0001) ADREAD:  tid,vid, irec, length, prec(x2)=    39     3     1      672  8 64 fname=tapelev3_3_the_main_loop_taux1
(PID.TID 0000.0001) ADREAD:  tid,vid, irec, length, prec(x2)=    39     4     1      672  8 64 fname=tapelev3_4_the_main_loop_tauy0
(PID.TID 0000.0001) ADREAD:  tid,vid, irec, length, prec(x2)=    39     5     1      672  8 64 fname=tapelev3_5_the_main_loop_tauy1
(PID.TID 0000.0001) ADREAD:  tid,vid, irec, length, prec(x2)=    39     6     1      672  8 64 fname=tapelev3_6_the_main_loop_qnet0
(PID.TID 0000.0001) ADREAD:  tid,vid, irec, length, prec(x2)=    39     7     1      672  8 64 fname=tapelev3_7_the_main_loop_qnet1
(PID.TID 0000.0001) ADREAD:  tid,vid, irec, length, prec(x2)=    39     8     1      672  8 64 fname=tapelev3_8_the_main_loop_empmr0
(PID.TID 0000.0001) ADREAD:  tid,vid, irec, length, prec(x2)=    39     9     1      672  8 64 fname=tapelev3_9_the_main_loop_empmr1
(PID.TID 0000.0001) ADREAD:  tid,vid, irec, length, prec(x2)=    39    10     1      672  8 64 fname=tapelev3_10_the_main_loop_sst0
(PID.TID 0000.0001) ADREAD:  tid,vid, irec, length, prec(x2)=    39    11     1      672  8 64 fname=tapelev3_11_the_main_loop_sst1
(PID.TID 0000.0001) ADREAD:  tid,vid, irec, length, prec(x2)=    39    12     1      672  8 64 fname=tapelev3_12_the_main_loop_sss0
(PID.TID 0000.0001) ADREAD:  tid,vid, irec, length, prec(x2)=    39    13     1      672  8 64 fname=tapelev3_13_the_main_loop_sss1
(PID.TID 0000.0001) ADREAD:  tid,vid, irec, length, prec(x2)=    39    14     1      672  8 64 fname=tapelev3_14_the_main_loop_saltflux0
(PID.TID 0000.0001) ADREAD:  tid,vid, irec, length, prec(x2)=    39    15     1      672  8 64 fname=tapelev3_15_the_main_loop_saltflux1
(PID.TID 0000.0001) ADREAD:  tid,vid, irec, length, prec(x2)=    39    16     1      672  8 64 fname=tapelev3_16_the_main_loop_qsw0
(PID.TID 0000.0001) ADREAD:  tid,vid, irec, length, prec(x2)=    39    17     1      672  8 64 fname=tapelev3_17_the_main_loop_qsw1
(PID.TID 0000.0001) ADREAD:  tid,vid, irec, length, prec(x2)=    39    18     1      672  8 64 fname=tapelev3_18_the_main_loop_pload0
(PID.TID 0000.0001) ADREAD:  tid,vid, irec, length, prec(x2)=    39    19     1      672  8 64 fname=tapelev3_19_the_main_loop_pload1
(PID.TID 0000.0001) ADREAD:  tid,vid, irec, length, prec(x2)=    39    20     1      672  8 64 fname=tapelev3_20_the_main_loop_etah
(PID.TID 0000.0001) ADREAD:  tid,vid, irec, length, prec(x2)=    39    21     1      672  8 64 fname=tapelev3_21_the_main_loop_detahdt
(PID.TID 0000.0001) ADREAD:  tid,vid, irec, length, prec(x2)=    39    22     1      672  8 64 fname=tapelev3_22_the_main_loop_pmepr
(PID.TID 0000.0001) ADREAD:  tid,vid, irec, length, prec(x2)=    39    23     1    15456  8 64 fname=tapelev3_23_the_main_loop_gtnm1
(PID.TID 0000.0001) ADREAD:  tid,vid, irec, length, prec(x2)=    39    24     1    15456  8 64 fname=tapelev3_24_the_main_loop_gsnm1
(PID.TID 0000.0001) ADREAD:  tid,vid, irec, length, prec(x2)=    39    25     1    15456  8 64 fname=tapelev3_25_the_main_loop_gunm1
(PID.TID 0000.0001) ADREAD:  tid,vid, irec, length, prec(x2)=    39    26     1    15456  8 64 fname=tapelev3_26_the_main_loop_gvnm1
(PID.TID 0000.0001) ADREAD:  tid,vid, irec, length, prec(x2)=    39    27     1    15456  8 64 fname=tapelev3_27_the_main_loop_theta
(PID.TID 0000.0001) ADREAD:  tid,vid, irec, length, prec(x2)=    39    28     1    15456  8 64 fname=tapelev3_28_the_main_loop_salt
(PID.TID 0000.0001) ADREAD:  tid,vid, irec, length, prec(x2)=    39    29     1    15456  8 64 fname=tapelev3_29_the_main_loop_uvel
(PID.TID 0000.0001) ADREAD:  tid,vid, irec, length, prec(x2)=    39    30     1    15456  8 64 fname=tapelev3_30_the_main_loop_vvel
(PID.TID 0000.0001) ADREAD:  tid,vid, irec, length, prec(x2)=    39    31     1    15456  8 64 fname=tapelev3_31_the_main_loop_wvel
(PID.TID 0000.0001) ADREAD:  tid,vid, irec, length, prec(x2)=    39    32     1    15456  8 64 fname=tapelev3_32_the_main_loop_totphihyd
(PID.TID 0000.0001) ADREAD:  tid,vid, irec, length, prec(x2)=    39    35     1    15456  8 64 fname=tapelev3_35_the_main_loop_uveld
(PID.TID 0000.0001) ADREAD:  tid,vid, irec, length, prec(x2)=    39    36     1    15456  8 64 fname=tapelev3_36_the_main_loop_vveld
(PID.TID 0000.0001) ADREAD:  tid,vid, irec, length, prec(x2)=    39    37     1      672  8 64 fname=tapelev3_37_the_main_loop_etanm1
(PID.TID 0000.0001) ADREAD:  tid,vid, irec, length, prec(x2)=    39    38     1    15456  8 64 fname=tapelev3_38_the_main_loop_unm1
(PID.TID 0000.0001) ADREAD:  tid,vid, irec, length, prec(x2)=    39    39     1    15456  8 64 fname=tapelev3_39_the_main_loop_vnm1
(PID.TID 0000.0001) ADREAD:  tid,vid, irec, length, prec(x2)=    39    40     1      672  8 64 fname=tapelev3_40_the_main_loop_areamask0
(PID.TID 0000.0001) ADREAD:  tid,vid, irec, length, prec(x2)=    39    41     1      672  8 64 fname=tapelev3_41_the_main_loop_areamask1
(PID.TID 0000.0001) ADREAD:  tid,vid, irec, length, prec(x2)=    39    42     1      672  8 64 fname=tapelev3_42_the_main_loop_hflux0
(PID.TID 0000.0001) ADREAD:  tid,vid, irec, length, prec(x2)=    39    43     1      672  8 64 fname=tapelev3_43_the_main_loop_hflux1
(PID.TID 0000.0001) ADREAD:  tid,vid, irec, length, prec(x2)=    39    44     1      672  8 64 fname=tapelev3_44_the_main_loop_sflux0
(PID.TID 0000.0001) ADREAD:  tid,vid, irec, length, prec(x2)=    39    45     1      672  8 64 fname=tapelev3_45_the_main_loop_sflux1
(PID.TID 0000.0001) ADREAD:  tid,vid, irec, length, prec(x2)=    39    46     1      672  8 64 fname=tapelev3_46_the_main_loop_ustress0
(PID.TID 0000.0001) ADREAD:  tid,vid, irec, length, prec(x2)=    39    47     1      672  8 64 fname=tapelev3_47_the_main_loop_ustress1
(PID.TID 0000.0001) ADREAD:  tid,vid, irec, length, prec(x2)=    39    48     1      672  8 64 fname=tapelev3_48_the_main_loop_vstress0
(PID.TID 0000.0001) ADREAD:  tid,vid, irec, length, prec(x2)=    39    49     1      672  8 64 fname=tapelev3_49_the_main_loop_vstress1
(PID.TID 0000.0001) ADREAD:  tid,vid, irec, length, prec(x2)=    39    50     1      672  8 64 fname=tapelev3_50_the_main_loop_wspeed0
(PID.TID 0000.0001) ADREAD:  tid,vid, irec, length, prec(x2)=    39    51     1      672  8 64 fname=tapelev3_51_the_main_loop_wspeed1
(PID.TID 0000.0001) ADREAD:  tid,vid, irec, length, prec(x2)=    39    54     1      672  8 64 fname=tapelev3_54_the_main_loop_runoff0
(PID.TID 0000.0001) ADREAD:  tid,vid, irec, length, prec(x2)=    39    55     1      672  8 64 fname=tapelev3_55_the_main_loop_runoff1
(PID.TID 0000.0001) ADREAD:  tid,vid, irec, length, prec(x2)=    39    56     1      672  8 64 fname=tapelev3_56_the_main_loop_apressure0
(PID.TID 0000.0001) ADREAD:  tid,vid, irec, length, prec(x2)=    39    57     1      672  8 64 fname=tapelev3_57_the_main_loop_apressure1
(PID.TID 0000.0001) ADREAD:  tid,vid, irec, length, prec(x2)=    39    58     1      672  8 64 fname=tapelev3_58_the_main_loop_siceload
(PID.TID 0000.0001) ADREAD:  tid,vid, irec, length, prec(x2)=    39    59     1      672  8 64 fname=tapelev3_59_the_main_loop_climsss0
(PID.TID 0000.0001) ADREAD:  tid,vid, irec, length, prec(x2)=    39    60     1      672  8 64 fname=tapelev3_60_the_main_loop_climsss1
(PID.TID 0000.0001) ADREAD:  tid,vid, irec, length, prec(x2)=    39    61     1      672  8 64 fname=tapelev3_61_the_main_loop_climsst0
(PID.TID 0000.0001) ADREAD:  tid,vid, irec, length, prec(x2)=    39    62     1      672  8 64 fname=tapelev3_62_the_main_loop_climsst1
(PID.TID 0000.0001) ADREAD:  tid,vid, irec, length, prec(x2)=    39    63     1      672  8 64 fname=tapelev3_63_the_main_loop_saltflx0
(PID.TID 0000.0001) ADREAD:  tid,vid, irec, length, prec(x2)=    39    64     1      672  8 64 fname=tapelev3_64_the_main_loop_saltflx1
(PID.TID 0000.0001) ADREAD:  tid,vid, irec, length, prec(x2)=    39    65     1      672  8 64 fname=tapelev3_65_the_main_loop_aqh0
(PID.TID 0000.0001) ADREAD:  tid,vid, irec, length, prec(x2)=    39    66     1      672  8 64 fname=tapelev3_66_the_main_loop_aqh1
(PID.TID 0000.0001) ADREAD:  tid,vid, irec, length, prec(x2)=    39    67     1      672  8 64 fname=tapelev3_67_the_main_loop_atemp0
(PID.TID 0000.0001) ADREAD:  tid,vid, irec, length, prec(x2)=    39    68     1      672  8 64 fname=tapelev3_68_the_main_loop_atemp1
(PID.TID 0000.0001) ADREAD:  tid,vid, irec, length, prec(x2)=    39    69     1      672  8 64 fname=tapelev3_69_the_main_loop_precip0
(PID.TID 0000.0001) ADREAD:  tid,vid, irec, length, prec(x2)=    39    70     1      672  8 64 fname=tapelev3_70_the_main_loop_precip1
(PID.TID 0000.0001) ADREAD:  tid,vid, irec, length, prec(x2)=    39    73     1      672  8 64 fname=tapelev3_73_the_main_loop_snowprecip0
(PID.TID 0000.0001) ADREAD:  tid,vid, irec, length, prec(x2)=    39    74     1      672  8 64 fname=tapelev3_74_the_main_loop_snowprecip1
(PID.TID 0000.0001) ADREAD:  tid,vid, irec, length, prec(x2)=    39    75     1      672  8 64 fname=tapelev3_75_the_main_loop_swdown0
(PID.TID 0000.0001) ADREAD:  tid,vid, irec, length, prec(x2)=    39    76     1      672  8 64 fname=tapelev3_76_the_main_loop_swdown1
(PID.TID 0000.0001) ADREAD:  tid,vid, irec, length, prec(x2)=    39    77     1      672  8 64 fname=tapelev3_77_the_main_loop_lwdown0
(PID.TID 0000.0001) ADREAD:  tid,vid, irec, length, prec(x2)=    39    78     1      672  8 64 fname=tapelev3_78_the_main_loop_lwdown1
(PID.TID 0000.0001) ADREAD:  tid,vid, irec, length, prec(x2)=    39    79     1      672  8 64 fname=tapelev3_79_the_main_loop_uwind0
(PID.TID 0000.0001) ADREAD:  tid,vid, irec, length, prec(x2)=    39    80     1      672  8 64 fname=tapelev3_80_the_main_loop_uwind1
(PID.TID 0000.0001) ADREAD:  tid,vid, irec, length, prec(x2)=    39    81     1      672  8 64 fname=tapelev3_81_the_main_loop_vwind0
(PID.TID 0000.0001) ADREAD:  tid,vid, irec, length, prec(x2)=    39    82     1      672  8 64 fname=tapelev3_82_the_main_loop_vwind1
(PID.TID 0000.0001) ADREAD:  tid,vid, irec, length, prec(x2)=    39    83     1     6048  8 64 fname=tapelev3_83_the_main_loop_xx_gentim2d
(PID.TID 0000.0001) ADREAD:  tid,vid, irec, length, prec(x2)=    39    84     1     6048  8 64 fname=tapelev3_84_the_main_loop_xx_gentim2d0
(PID.TID 0000.0001) ADREAD:  tid,vid, irec, length, prec(x2)=    39    85     1     6048  8 64 fname=tapelev3_85_the_main_loop_xx_gentim2d1
(PID.TID 0000.0001) ADREAD:  tid,vid, irec, length, prec(x2)=    39    87     1      672  8 64 fname=tapelev3_87_the_main_loop_phihydlow
(PID.TID 0000.0001) ADREAD:  tid,vid, irec, length, prec(x2)=    39    88     1      672  8 64 fname=tapelev3_88_the_main_loop_area
(PID.TID 0000.0001) ADREAD:  tid,vid, irec, length, prec(x2)=    39    89     1      672  8 64 fname=tapelev3_89_the_main_loop_heff
(PID.TID 0000.0001) ADREAD:  tid,vid, irec, length, prec(x2)=    39    90     1      672  8 64 fname=tapelev3_90_the_main_loop_hsnow
(PID.TID 0000.0001) ADREAD:  tid,vid, irec, length, prec(x2)=    39    92     1      672  8 64 fname=tapelev3_92_the_main_loop_uice
(PID.TID 0000.0001) ADREAD:  tid,vid, irec, length, prec(x2)=    39    93     1      672  8 64 fname=tapelev3_93_the_main_loop_vice
(PID.TID 0000.0001) ADREAD:  tid,vid, irec, length, prec(x2)=    39    96     1     4704  8 64 fname=tapelev3_96_the_main_loop_tices
(PID.TID 0000.0001) ADREAD:  tid,vid, irec, length, prec(x2)=    39    97     1      672  8 64 fname=tapelev3_97_the_main_loop_dwatn
(PID.TID 0000.0001) ADREAD:  tid,vid, irec, length, prec(x2)=    39    98     1      672  8 64 fname=tapelev3_98_the_main_loop_stressdivergencex
(PID.TID 0000.0001) ADREAD:  tid,vid, irec, length, prec(x2)=    39    99     1      672  8 64 fname=tapelev3_99_the_main_loop_stressdivergencey
(PID.TID 0000.0001) ADREAD:  tid,vid, irec, length, prec(x2)=    39   100     1      672  8 64 fname=tapelev3_100_the_main_loop_seaice_sigma1
(PID.TID 0000.0001) ADREAD:  tid,vid, irec, length, prec(x2)=    39   101     1      672  8 64 fname=tapelev3_101_the_main_loop_seaice_sigma2
(PID.TID 0000.0001) ADREAD:  tid,vid, irec, length, prec(x2)=    39   102     1      672  8 64 fname=tapelev3_102_the_main_loop_seaice_sigma12
(PID.TID 0000.0001) ADREAD:  tid,vid, irec, length, prec(x2)=    39   103     1      672  8 64 fname=tapelev3_103_the_main_loop_hsalt
(PID.TID 0000.0001) ADWRITE: tid,vid, irec, length, prec(x2)=    41     1     1      672  8 64 fname=tapelev2_1_the_main_loop_etan
(PID.TID 0000.0001) ADWRITE:  tapeFileCounter =     1
(PID.TID 0000.0001) ADWRITE: tid,vid, irec, length, prec(x2)=    41     2     1      672  8 64 fname=tapelev2_2_the_main_loop_taux0
(PID.TID 0000.0001) ADWRITE:  tapeFileCounter =     2
(PID.TID 0000.0001) ADWRITE: tid,vid, irec, length, prec(x2)=    41     3     1      672  8 64 fname=tapelev2_3_the_main_loop_taux1
(PID.TID 0000.0001) ADWRITE:  tapeFileCounter =     3
(PID.TID 0000.0001) ADWRITE: tid,vid, irec, length, prec(x2)=    41     4     1      672  8 64 fname=tapelev2_4_the_main_loop_tauy0
(PID.TID 0000.0001) ADWRITE:  tapeFileCounter =     4
(PID.TID 0000.0001) ADWRITE: tid,vid, irec, length, prec(x2)=    41     5     1      672  8 64 fname=tapelev2_5_the_main_loop_tauy1
(PID.TID 0000.0001) ADWRITE:  tapeFileCounter =     5
(PID.TID 0000.0001) ADWRITE: tid,vid, irec, length, prec(x2)=    41     6     1      672  8 64 fname=tapelev2_6_the_main_loop_qnet0
(PID.TID 0000.0001) ADWRITE:  tapeFileCounter =     6
(PID.TID 0000.0001) ADWRITE: tid,vid, irec, length, prec(x2)=    41     7     1      672  8 64 fname=tapelev2_7_the_main_loop_qnet1
(PID.TID 0000.0001) ADWRITE:  tapeFileCounter =     7
(PID.TID 0000.0001) ADWRITE: tid,vid, irec, length, prec(x2)=    41     8     1      672  8 64 fname=tapelev2_8_the_main_loop_empmr0
(PID.TID 0000.0001) ADWRITE:  tapeFileCounter =     8
(PID.TID 0000.0001) ADWRITE: tid,vid, irec, length, prec(x2)=    41     9     1      672  8 64 fname=tapelev2_9_the_main_loop_empmr1
(PID.TID 0000.0001) ADWRITE:  tapeFileCounter =     9
(PID.TID 0000.0001) ADWRITE: tid,vid, irec, length, prec(x2)=    41    10     1      672  8 64 fname=tapelev2_10_the_main_loop_sst0
(PID.TID 0000.0001) ADWRITE:  tapeFileCounter =    10
(PID.TID 0000.0001) ADWRITE: tid,vid, irec, length, prec(x2)=    41    11     1      672  8 64 fname=tapelev2_11_the_main_loop_sst1
(PID.TID 0000.0001) ADWRITE:  tapeFileCounter =    11
(PID.TID 0000.0001) ADWRITE: tid,vid, irec, length, prec(x2)=    41    12     1      672  8 64 fname=tapelev2_12_the_main_loop_sss0
(PID.TID 0000.0001) ADWRITE:  tapeFileCounter =    12
(PID.TID 0000.0001) ADWRITE: tid,vid, irec, length, prec(x2)=    41    13     1      672  8 64 fname=tapelev2_13_the_main_loop_sss1
(PID.TID 0000.0001) ADWRITE:  tapeFileCounter =    13
(PID.TID 0000.0001) ADWRITE: tid,vid, irec, length, prec(x2)=    41    14     1      672  8 64 fname=tapelev2_14_the_main_loop_saltflux0
(PID.TID 0000.0001) ADWRITE:  tapeFileCounter =    14
(PID.TID 0000.0001) ADWRITE: tid,vid, irec, length, prec(x2)=    41    15     1      672  8 64 fname=tapelev2_15_the_main_loop_saltflux1
(PID.TID 0000.0001) ADWRITE:  tapeFileCounter =    15
(PID.TID 0000.0001) ADWRITE: tid,vid, irec, length, prec(x2)=    41    16     1      672  8 64 fname=tapelev2_16_the_main_loop_qsw0
(PID.TID 0000.0001) ADWRITE:  tapeFileCounter =    16
(PID.TID 0000.0001) ADWRITE: tid,vid, irec, length, prec(x2)=    41    17     1      672  8 64 fname=tapelev2_17_the_main_loop_qsw1
(PID.TID 0000.0001) ADWRITE:  tapeFileCounter =    17
(PID.TID 0000.0001) ADWRITE: tid,vid, irec, length, prec(x2)=    41    18     1      672  8 64 fname=tapelev2_18_the_main_loop_pload0
(PID.TID 0000.0001) ADWRITE:  tapeFileCounter =    18
(PID.TID 0000.0001) ADWRITE: tid,vid, irec, length, prec(x2)=    41    19     1      672  8 64 fname=tapelev2_19_the_main_loop_pload1
(PID.TID 0000.0001) ADWRITE:  tapeFileCounter =    19
(PID.TID 0000.0001) ADWRITE: tid,vid, irec, length, prec(x2)=    41    20     1      672  8 64 fname=tapelev2_20_the_main_loop_etah
(PID.TID 0000.0001) ADWRITE:  tapeFileCounter =    20
(PID.TID 0000.0001) ADWRITE: tid,vid, irec, length, prec(x2)=    41    21     1      672  8 64 fname=tapelev2_21_the_main_loop_detahdt
(PID.TID 0000.0001) ADWRITE:  tapeFileCounter =    21
(PID.TID 0000.0001) ADWRITE: tid,vid, irec, length, prec(x2)=    41    22     1      672  8 64 fname=tapelev2_22_the_main_loop_pmepr
(PID.TID 0000.0001) ADWRITE:  tapeFileCounter =    22
(PID.TID 0000.0001) ADWRITE: tid,vid, irec, length, prec(x2)=    41    23     1    15456  8 64 fname=tapelev2_23_the_main_loop_gtnm1
(PID.TID 0000.0001) ADWRITE:  tapeFileCounter =    23
(PID.TID 0000.0001) ADWRITE:  tapeFileCounter =    24
(PID.TID 0000.0001) ADWRITE:  tapeFileCounter =    25
(PID.TID 0000.0001) ADWRITE:  tapeFileCounter =    26
(PID.TID 0000.0001) ADWRITE:  tapeFileCounter =    27
(PID.TID 0000.0001) ADWRITE:  tapeFileCounter =    28
(PID.TID 0000.0001) ADWRITE:  tapeFileCounter =    29
(PID.TID 0000.0001) ADWRITE:  tapeFileCounter =    30
(PID.TID 0000.0001) ADWRITE:  tapeFileCounter =    31
(PID.TID 0000.0001) ADWRITE:  tapeFileCounter =    32
(PID.TID 0000.0001) ADWRITE:  tapeFileCounter =    33
(PID.TID 0000.0001) ADWRITE:  tapeFileCounter =    34
(PID.TID 0000.0001) ADWRITE:  tapeFileCounter =    35
(PID.TID 0000.0001) ADWRITE:  tapeFileCounter =    36
(PID.TID 0000.0001) ADWRITE:  tapeFileCounter =    37
(PID.TID 0000.0001) ADWRITE:  tapeFileCounter =    38
(PID.TID 0000.0001) ADWRITE:  tapeFileCounter =    39
(PID.TID 0000.0001) ADWRITE:  tapeFileCounter =    40
(PID.TID 0000.0001) ADWRITE:  tapeFileCounter =    41
(PID.TID 0000.0001) ADWRITE:  tapeFileCounter =    42
(PID.TID 0000.0001) ADWRITE:  tapeFileCounter =    43
(PID.TID 0000.0001) ADWRITE:  tapeFileCounter =    44
(PID.TID 0000.0001) ADWRITE:  tapeFileCounter =    45
(PID.TID 0000.0001) ADWRITE: tid,vid, irec, length, prec(x2)=    41    24     1    15456  8 64 fname=tapelev2_24_the_main_loop_gsnm1
(PID.TID 0000.0001) ADWRITE:  tapeFileCounter =    46
(PID.TID 0000.0001) ADWRITE:  tapeFileCounter =    47
(PID.TID 0000.0001) ADWRITE:  tapeFileCounter =    48
(PID.TID 0000.0001) ADWRITE:  tapeFileCounter =    49
(PID.TID 0000.0001) ADWRITE:  tapeFileCounter =    50
(PID.TID 0000.0001) ADWRITE:  tapeFileCounter =    51
(PID.TID 0000.0001) ADWRITE:  tapeFileCounter =    52
(PID.TID 0000.0001) ADWRITE:  tapeFileCounter =    53
(PID.TID 0000.0001) ADWRITE:  tapeFileCounter =    54
(PID.TID 0000.0001) ADWRITE:  tapeFileCounter =    55
(PID.TID 0000.0001) ADWRITE:  tapeFileCounter =    56
(PID.TID 0000.0001) ADWRITE:  tapeFileCounter =    57
(PID.TID 0000.0001) ADWRITE:  tapeFileCounter =    58
(PID.TID 0000.0001) ADWRITE:  tapeFileCounter =    59
(PID.TID 0000.0001) ADWRITE:  tapeFileCounter =    60
(PID.TID 0000.0001) ADWRITE:  tapeFileCounter =    61
(PID.TID 0000.0001) ADWRITE:  tapeFileCounter =    62
(PID.TID 0000.0001) ADWRITE:  tapeFileCounter =    63
(PID.TID 0000.0001) ADWRITE:  tapeFileCounter =    64
(PID.TID 0000.0001) ADWRITE:  tapeFileCounter =    65
(PID.TID 0000.0001) ADWRITE:  tapeFileCounter =    66
(PID.TID 0000.0001) ADWRITE:  tapeFileCounter =    67
(PID.TID 0000.0001) ADWRITE:  tapeFileCounter =    68
(PID.TID 0000.0001) ADWRITE: tid,vid, irec, length, prec(x2)=    41    25     1    15456  8 64 fname=tapelev2_25_the_main_loop_gunm1
(PID.TID 0000.0001) ADWRITE:  tapeFileCounter =    69
(PID.TID 0000.0001) ADWRITE:  tapeFileCounter =    70
(PID.TID 0000.0001) ADWRITE:  tapeFileCounter =    71
(PID.TID 0000.0001) ADWRITE:  tapeFileCounter =    72
(PID.TID 0000.0001) ADWRITE:  tapeFileCounter =    73
(PID.TID 0000.0001) ADWRITE:  tapeFileCounter =    74
(PID.TID 0000.0001) ADWRITE:  tapeFileCounter =    75
(PID.TID 0000.0001) ADWRITE:  tapeFileCounter =    76
(PID.TID 0000.0001) ADWRITE:  tapeFileCounter =    77
(PID.TID 0000.0001) ADWRITE:  tapeFileCounter =    78
(PID.TID 0000.0001) ADWRITE:  tapeFileCounter =    79
(PID.TID 0000.0001) ADWRITE:  tapeFileCounter =    80
(PID.TID 0000.0001) ADWRITE:  tapeFileCounter =    81
(PID.TID 0000.0001) ADWRITE:  tapeFileCounter =    82
(PID.TID 0000.0001) ADWRITE:  tapeFileCounter =    83
(PID.TID 0000.0001) ADWRITE:  tapeFileCounter =    84
(PID.TID 0000.0001) ADWRITE:  tapeFileCounter =    85
(PID.TID 0000.0001) ADWRITE:  tapeFileCounter =    86
(PID.TID 0000.0001) ADWRITE:  tapeFileCounter =    87
(PID.TID 0000.0001) ADWRITE:  tapeFileCounter =    88
(PID.TID 0000.0001) ADWRITE:  tapeFileCounter =    89
(PID.TID 0000.0001) ADWRITE:  tapeFileCounter =    90
(PID.TID 0000.0001) ADWRITE:  tapeFileCounter =    91
(PID.TID 0000.0001) ADWRITE: tid,vid, irec, length, prec(x2)=    41    26     1    15456  8 64 fname=tapelev2_26_the_main_loop_gvnm1
(PID.TID 0000.0001) ADWRITE:  tapeFileCounter =    92
(PID.TID 0000.0001) ADWRITE:  tapeFileCounter =    93
(PID.TID 0000.0001) ADWRITE:  tapeFileCounter =    94
(PID.TID 0000.0001) ADWRITE:  tapeFileCounter =    95
(PID.TID 0000.0001) ADWRITE:  tapeFileCounter =    96
(PID.TID 0000.0001) ADWRITE:  tapeFileCounter =    97
(PID.TID 0000.0001) ADWRITE:  tapeFileCounter =    98
(PID.TID 0000.0001) ADWRITE:  tapeFileCounter =    99
(PID.TID 0000.0001) ADWRITE:  tapeFileCounter =   100
(PID.TID 0000.0001) ADWRITE:  tapeFileCounter =   101
(PID.TID 0000.0001) ADWRITE:  tapeFileCounter =   102
(PID.TID 0000.0001) ADWRITE:  tapeFileCounter =   103
(PID.TID 0000.0001) ADWRITE:  tapeFileCounter =   104
(PID.TID 0000.0001) ADWRITE:  tapeFileCounter =   105
(PID.TID 0000.0001) ADWRITE:  tapeFileCounter =   106
(PID.TID 0000.0001) ADWRITE:  tapeFileCounter =   107
(PID.TID 0000.0001) ADWRITE:  tapeFileCounter =   108
(PID.TID 0000.0001) ADWRITE:  tapeFileCounter =   109
(PID.TID 0000.0001) ADWRITE:  tapeFileCounter =   110
(PID.TID 0000.0001) ADWRITE:  tapeFileCounter =   111
(PID.TID 0000.0001) ADWRITE:  tapeFileCounter =   112
(PID.TID 0000.0001) ADWRITE:  tapeFileCounter =   113
(PID.TID 0000.0001) ADWRITE:  tapeFileCounter =   114
(PID.TID 0000.0001) ADWRITE: tid,vid, irec, length, prec(x2)=    41    27     1    15456  8 64 fname=tapelev2_27_the_main_loop_theta
(PID.TID 0000.0001) ADWRITE:  tapeFileCounter =   115
(PID.TID 0000.0001) ADWRITE:  tapeFileCounter =   116
(PID.TID 0000.0001) ADWRITE:  tapeFileCounter =   117
(PID.TID 0000.0001) ADWRITE:  tapeFileCounter =   118
(PID.TID 0000.0001) ADWRITE:  tapeFileCounter =   119
(PID.TID 0000.0001) ADWRITE:  tapeFileCounter =   120
(PID.TID 0000.0001) ADWRITE:  tapeFileCounter =   121
(PID.TID 0000.0001) ADWRITE:  tapeFileCounter =   122
(PID.TID 0000.0001) ADWRITE:  tapeFileCounter =   123
(PID.TID 0000.0001) ADWRITE:  tapeFileCounter =   124
(PID.TID 0000.0001) ADWRITE:  tapeFileCounter =   125
(PID.TID 0000.0001) ADWRITE:  tapeFileCounter =   126
(PID.TID 0000.0001) ADWRITE:  tapeFileCounter =   127
(PID.TID 0000.0001) ADWRITE:  tapeFileCounter =   128
(PID.TID 0000.0001) ADWRITE:  tapeFileCounter =   129
(PID.TID 0000.0001) ADWRITE:  tapeFileCounter =   130
(PID.TID 0000.0001) ADWRITE:  tapeFileCounter =   131
(PID.TID 0000.0001) ADWRITE:  tapeFileCounter =   132
(PID.TID 0000.0001) ADWRITE:  tapeFileCounter =   133
(PID.TID 0000.0001) ADWRITE:  tapeFileCounter =   134
(PID.TID 0000.0001) ADWRITE:  tapeFileCounter =   135
(PID.TID 0000.0001) ADWRITE:  tapeFileCounter =   136
(PID.TID 0000.0001) ADWRITE:  tapeFileCounter =   137
(PID.TID 0000.0001) ADWRITE: tid,vid, irec, length, prec(x2)=    41    28     1    15456  8 64 fname=tapelev2_28_the_main_loop_salt
(PID.TID 0000.0001) ADWRITE:  tapeFileCounter =   138
(PID.TID 0000.0001) ADWRITE:  tapeFileCounter =   139
(PID.TID 0000.0001) ADWRITE:  tapeFileCounter =   140
(PID.TID 0000.0001) ADWRITE:  tapeFileCounter =   141
(PID.TID 0000.0001) ADWRITE:  tapeFileCounter =   142
(PID.TID 0000.0001) ADWRITE:  tapeFileCounter =   143
(PID.TID 0000.0001) ADWRITE:  tapeFileCounter =   144
(PID.TID 0000.0001) ADWRITE:  tapeFileCounter =   145
(PID.TID 0000.0001) ADWRITE:  tapeFileCounter =   146
(PID.TID 0000.0001) ADWRITE:  tapeFileCounter =   147
(PID.TID 0000.0001) ADWRITE:  tapeFileCounter =   148
(PID.TID 0000.0001) ADWRITE:  tapeFileCounter =   149
(PID.TID 0000.0001) ADWRITE:  tapeFileCounter =   150
(PID.TID 0000.0001) ADWRITE:  tapeFileCounter =   151
(PID.TID 0000.0001) ADWRITE:  tapeFileCounter =   152
(PID.TID 0000.0001) ADWRITE:  tapeFileCounter =   153
(PID.TID 0000.0001) ADWRITE:  tapeFileCounter =   154
(PID.TID 0000.0001) ADWRITE:  tapeFileCounter =   155
(PID.TID 0000.0001) ADWRITE:  tapeFileCounter =   156
(PID.TID 0000.0001) ADWRITE:  tapeFileCounter =   157
(PID.TID 0000.0001) ADWRITE:  tapeFileCounter =   158
(PID.TID 0000.0001) ADWRITE:  tapeFileCounter =   159
(PID.TID 0000.0001) ADWRITE:  tapeFileCounter =   160
(PID.TID 0000.0001) ADWRITE: tid,vid, irec, length, prec(x2)=    41    29     1    15456  8 64 fname=tapelev2_29_the_main_loop_uvel
(PID.TID 0000.0001) ADWRITE:  tapeFileCounter =   161
(PID.TID 0000.0001) ADWRITE:  tapeFileCounter =   162
(PID.TID 0000.0001) ADWRITE:  tapeFileCounter =   163
(PID.TID 0000.0001) ADWRITE:  tapeFileCounter =   164
(PID.TID 0000.0001) ADWRITE:  tapeFileCounter =   165
(PID.TID 0000.0001) ADWRITE:  tapeFileCounter =   166
(PID.TID 0000.0001) ADWRITE:  tapeFileCounter =   167
(PID.TID 0000.0001) ADWRITE:  tapeFileCounter =   168
(PID.TID 0000.0001) ADWRITE:  tapeFileCounter =   169
(PID.TID 0000.0001) ADWRITE:  tapeFileCounter =   170
(PID.TID 0000.0001) ADWRITE:  tapeFileCounter =   171
(PID.TID 0000.0001) ADWRITE:  tapeFileCounter =   172
(PID.TID 0000.0001) ADWRITE:  tapeFileCounter =   173
(PID.TID 0000.0001) ADWRITE:  tapeFileCounter =   174
(PID.TID 0000.0001) ADWRITE:  tapeFileCounter =   175
(PID.TID 0000.0001) ADWRITE:  tapeFileCounter =   176
(PID.TID 0000.0001) ADWRITE:  tapeFileCounter =   177
(PID.TID 0000.0001) ADWRITE:  tapeFileCounter =   178
(PID.TID 0000.0001) ADWRITE:  tapeFileCounter =   179
(PID.TID 0000.0001) ADWRITE:  tapeFileCounter =   180
(PID.TID 0000.0001) ADWRITE:  tapeFileCounter =   181
(PID.TID 0000.0001) ADWRITE:  tapeFileCounter =   182
(PID.TID 0000.0001) ADWRITE:  tapeFileCounter =   183
(PID.TID 0000.0001) ADWRITE: tid,vid, irec, length, prec(x2)=    41    30     1    15456  8 64 fname=tapelev2_30_the_main_loop_vvel
(PID.TID 0000.0001) ADWRITE:  tapeFileCounter =   184
(PID.TID 0000.0001) ADWRITE:  tapeFileCounter =   185
(PID.TID 0000.0001) ADWRITE:  tapeFileCounter =   186
(PID.TID 0000.0001) ADWRITE:  tapeFileCounter =   187
(PID.TID 0000.0001) ADWRITE:  tapeFileCounter =   188
(PID.TID 0000.0001) ADWRITE:  tapeFileCounter =   189
(PID.TID 0000.0001) ADWRITE:  tapeFileCounter =   190
(PID.TID 0000.0001) ADWRITE:  tapeFileCounter =   191
(PID.TID 0000.0001) ADWRITE:  tapeFileCounter =   192
(PID.TID 0000.0001) ADWRITE:  tapeFileCounter =   193
(PID.TID 0000.0001) ADWRITE:  tapeFileCounter =   194
(PID.TID 0000.0001) ADWRITE:  tapeFileCounter =   195
(PID.TID 0000.0001) ADWRITE:  tapeFileCounter =   196
(PID.TID 0000.0001) ADWRITE:  tapeFileCounter =   197
(PID.TID 0000.0001) ADWRITE:  tapeFileCounter =   198
(PID.TID 0000.0001) ADWRITE:  tapeFileCounter =   199
(PID.TID 0000.0001) ADWRITE:  tapeFileCounter =   200
(PID.TID 0000.0001) ADWRITE:  tapeFileCounter =   201
(PID.TID 0000.0001) ADWRITE:  tapeFileCounter =   202
(PID.TID 0000.0001) ADWRITE:  tapeFileCounter =   203
(PID.TID 0000.0001) ADWRITE:  tapeFileCounter =   204
(PID.TID 0000.0001) ADWRITE:  tapeFileCounter =   205
(PID.TID 0000.0001) ADWRITE:  tapeFileCounter =   206
(PID.TID 0000.0001) ADWRITE: tid,vid, irec, length, prec(x2)=    41    31     1    15456  8 64 fname=tapelev2_31_the_main_loop_wvel
(PID.TID 0000.0001) ADWRITE:  tapeFileCounter =   207
(PID.TID 0000.0001) ADWRITE:  tapeFileCounter =   208
(PID.TID 0000.0001) ADWRITE:  tapeFileCounter =   209
(PID.TID 0000.0001) ADWRITE:  tapeFileCounter =   210
(PID.TID 0000.0001) ADWRITE:  tapeFileCounter =   211
(PID.TID 0000.0001) ADWRITE:  tapeFileCounter =   212
(PID.TID 0000.0001) ADWRITE:  tapeFileCounter =   213
(PID.TID 0000.0001) ADWRITE:  tapeFileCounter =   214
(PID.TID 0000.0001) ADWRITE:  tapeFileCounter =   215
(PID.TID 0000.0001) ADWRITE:  tapeFileCounter =   216
(PID.TID 0000.0001) ADWRITE:  tapeFileCounter =   217
(PID.TID 0000.0001) ADWRITE:  tapeFileCounter =   218
(PID.TID 0000.0001) ADWRITE:  tapeFileCounter =   219
(PID.TID 0000.0001) ADWRITE:  tapeFileCounter =   220
(PID.TID 0000.0001) ADWRITE:  tapeFileCounter =   221
(PID.TID 0000.0001) ADWRITE:  tapeFileCounter =   222
(PID.TID 0000.0001) ADWRITE:  tapeFileCounter =   223
(PID.TID 0000.0001) ADWRITE:  tapeFileCounter =   224
(PID.TID 0000.0001) ADWRITE:  tapeFileCounter =   225
(PID.TID 0000.0001) ADWRITE:  tapeFileCounter =   226
(PID.TID 0000.0001) ADWRITE:  tapeFileCounter =   227
(PID.TID 0000.0001) ADWRITE:  tapeFileCounter =   228
(PID.TID 0000.0001) ADWRITE:  tapeFileCounter =   229
(PID.TID 0000.0001) ADWRITE: tid,vid, irec, length, prec(x2)=    41    32     1    15456  8 64 fname=tapelev2_32_the_main_loop_totphihyd
(PID.TID 0000.0001) ADWRITE:  tapeFileCounter =   230
(PID.TID 0000.0001) ADWRITE:  tapeFileCounter =   231
(PID.TID 0000.0001) ADWRITE:  tapeFileCounter =   232
(PID.TID 0000.0001) ADWRITE:  tapeFileCounter =   233
(PID.TID 0000.0001) ADWRITE:  tapeFileCounter =   234
(PID.TID 0000.0001) ADWRITE:  tapeFileCounter =   235
(PID.TID 0000.0001) ADWRITE:  tapeFileCounter =   236
(PID.TID 0000.0001) ADWRITE:  tapeFileCounter =   237
(PID.TID 0000.0001) ADWRITE:  tapeFileCounter =   238
(PID.TID 0000.0001) ADWRITE:  tapeFileCounter =   239
(PID.TID 0000.0001) ADWRITE:  tapeFileCounter =   240
(PID.TID 0000.0001) ADWRITE:  tapeFileCounter =   241
(PID.TID 0000.0001) ADWRITE:  tapeFileCounter =   242
(PID.TID 0000.0001) ADWRITE:  tapeFileCounter =   243
(PID.TID 0000.0001) ADWRITE:  tapeFileCounter =   244
(PID.TID 0000.0001) ADWRITE:  tapeFileCounter =   245
(PID.TID 0000.0001) ADWRITE:  tapeFileCounter =   246
(PID.TID 0000.0001) ADWRITE:  tapeFileCounter =   247
(PID.TID 0000.0001) ADWRITE:  tapeFileCounter =   248
(PID.TID 0000.0001) ADWRITE:  tapeFileCounter =   249
(PID.TID 0000.0001) ADWRITE:  tapeFileCounter =   250
(PID.TID 0000.0001) ADWRITE:  tapeFileCounter =   251
(PID.TID 0000.0001) ADWRITE:  tapeFileCounter =   252
(PID.TID 0000.0001) ADWRITE: tid,vid, irec, length, prec(x2)=    41    35     1    15456  8 64 fname=tapelev2_35_the_main_loop_uveld
(PID.TID 0000.0001) ADWRITE:  tapeFileCounter =   253
(PID.TID 0000.0001) ADWRITE:  tapeFileCounter =   254
(PID.TID 0000.0001) ADWRITE:  tapeFileCounter =   255
(PID.TID 0000.0001) ADWRITE:  tapeFileCounter =   256
(PID.TID 0000.0001) ADWRITE:  tapeFileCounter =   257
(PID.TID 0000.0001) ADWRITE:  tapeFileCounter =   258
(PID.TID 0000.0001) ADWRITE:  tapeFileCounter =   259
(PID.TID 0000.0001) ADWRITE:  tapeFileCounter =   260
(PID.TID 0000.0001) ADWRITE:  tapeFileCounter =   261
(PID.TID 0000.0001) ADWRITE:  tapeFileCounter =   262
(PID.TID 0000.0001) ADWRITE:  tapeFileCounter =   263
(PID.TID 0000.0001) ADWRITE:  tapeFileCounter =   264
(PID.TID 0000.0001) ADWRITE:  tapeFileCounter =   265
(PID.TID 0000.0001) ADWRITE:  tapeFileCounter =   266
(PID.TID 0000.0001) ADWRITE:  tapeFileCounter =   267
(PID.TID 0000.0001) ADWRITE:  tapeFileCounter =   268
(PID.TID 0000.0001) ADWRITE:  tapeFileCounter =   269
(PID.TID 0000.0001) ADWRITE:  tapeFileCounter =   270
(PID.TID 0000.0001) ADWRITE:  tapeFileCounter =   271
(PID.TID 0000.0001) ADWRITE:  tapeFileCounter =   272
(PID.TID 0000.0001) ADWRITE:  tapeFileCounter =   273
(PID.TID 0000.0001) ADWRITE:  tapeFileCounter =   274
(PID.TID 0000.0001) ADWRITE:  tapeFileCounter =   275
(PID.TID 0000.0001) ADWRITE: tid,vid, irec, length, prec(x2)=    41    36     1    15456  8 64 fname=tapelev2_36_the_main_loop_vveld
(PID.TID 0000.0001) ADWRITE:  tapeFileCounter =   276
(PID.TID 0000.0001) ADWRITE:  tapeFileCounter =   277
(PID.TID 0000.0001) ADWRITE:  tapeFileCounter =   278
(PID.TID 0000.0001) ADWRITE:  tapeFileCounter =   279
(PID.TID 0000.0001) ADWRITE:  tapeFileCounter =   280
(PID.TID 0000.0001) ADWRITE:  tapeFileCounter =   281
(PID.TID 0000.0001) ADWRITE:  tapeFileCounter =   282
(PID.TID 0000.0001) ADWRITE:  tapeFileCounter =   283
(PID.TID 0000.0001) ADWRITE:  tapeFileCounter =   284
(PID.TID 0000.0001) ADWRITE:  tapeFileCounter =   285
(PID.TID 0000.0001) ADWRITE:  tapeFileCounter =   286
(PID.TID 0000.0001) ADWRITE:  tapeFileCounter =   287
(PID.TID 0000.0001) ADWRITE:  tapeFileCounter =   288
(PID.TID 0000.0001) ADWRITE:  tapeFileCounter =   289
(PID.TID 0000.0001) ADWRITE:  tapeFileCounter =   290
(PID.TID 0000.0001) ADWRITE:  tapeFileCounter =   291
(PID.TID 0000.0001) ADWRITE:  tapeFileCounter =   292
(PID.TID 0000.0001) ADWRITE:  tapeFileCounter =   293
(PID.TID 0000.0001) ADWRITE:  tapeFileCounter =   294
(PID.TID 0000.0001) ADWRITE:  tapeFileCounter =   295
(PID.TID 0000.0001) ADWRITE:  tapeFileCounter =   296
(PID.TID 0000.0001) ADWRITE:  tapeFileCounter =   297
(PID.TID 0000.0001) ADWRITE:  tapeFileCounter =   298
(PID.TID 0000.0001) ADWRITE: tid,vid, irec, length, prec(x2)=    41    37     1      672  8 64 fname=tapelev2_37_the_main_loop_etanm1
(PID.TID 0000.0001) ADWRITE:  tapeFileCounter =   299
(PID.TID 0000.0001) ADWRITE: tid,vid, irec, length, prec(x2)=    41    38     1    15456  8 64 fname=tapelev2_38_the_main_loop_unm1
(PID.TID 0000.0001) ADWRITE:  tapeFileCounter =   300
(PID.TID 0000.0001) ADWRITE:  tapeFileCounter =   301
(PID.TID 0000.0001) ADWRITE:  tapeFileCounter =   302
(PID.TID 0000.0001) ADWRITE:  tapeFileCounter =   303
(PID.TID 0000.0001) ADWRITE:  tapeFileCounter =   304
(PID.TID 0000.0001) ADWRITE:  tapeFileCounter =   305
(PID.TID 0000.0001) ADWRITE:  tapeFileCounter =   306
(PID.TID 0000.0001) ADWRITE:  tapeFileCounter =   307
(PID.TID 0000.0001) ADWRITE:  tapeFileCounter =   308
(PID.TID 0000.0001) ADWRITE:  tapeFileCounter =   309
(PID.TID 0000.0001) ADWRITE:  tapeFileCounter =   310
(PID.TID 0000.0001) ADWRITE:  tapeFileCounter =   311
(PID.TID 0000.0001) ADWRITE:  tapeFileCounter =   312
(PID.TID 0000.0001) ADWRITE:  tapeFileCounter =   313
(PID.TID 0000.0001) ADWRITE:  tapeFileCounter =   314
(PID.TID 0000.0001) ADWRITE:  tapeFileCounter =   315
(PID.TID 0000.0001) ADWRITE:  tapeFileCounter =   316
(PID.TID 0000.0001) ADWRITE:  tapeFileCounter =   317
(PID.TID 0000.0001) ADWRITE:  tapeFileCounter =   318
(PID.TID 0000.0001) ADWRITE:  tapeFileCounter =   319
(PID.TID 0000.0001) ADWRITE:  tapeFileCounter =   320
(PID.TID 0000.0001) ADWRITE:  tapeFileCounter =   321
(PID.TID 0000.0001) ADWRITE:  tapeFileCounter =   322
(PID.TID 0000.0001) ADWRITE: tid,vid, irec, length, prec(x2)=    41    39     1    15456  8 64 fname=tapelev2_39_the_main_loop_vnm1
(PID.TID 0000.0001) ADWRITE:  tapeFileCounter =   323
(PID.TID 0000.0001) ADWRITE:  tapeFileCounter =   324
(PID.TID 0000.0001) ADWRITE:  tapeFileCounter =   325
(PID.TID 0000.0001) ADWRITE:  tapeFileCounter =   326
(PID.TID 0000.0001) ADWRITE:  tapeFileCounter =   327
(PID.TID 0000.0001) ADWRITE:  tapeFileCounter =   328
(PID.TID 0000.0001) ADWRITE:  tapeFileCounter =   329
(PID.TID 0000.0001) ADWRITE:  tapeFileCounter =   330
(PID.TID 0000.0001) ADWRITE:  tapeFileCounter =   331
(PID.TID 0000.0001) ADWRITE:  tapeFileCounter =   332
(PID.TID 0000.0001) ADWRITE:  tapeFileCounter =   333
(PID.TID 0000.0001) ADWRITE:  tapeFileCounter =   334
(PID.TID 0000.0001) ADWRITE:  tapeFileCounter =   335
(PID.TID 0000.0001) ADWRITE:  tapeFileCounter =   336
(PID.TID 0000.0001) ADWRITE:  tapeFileCounter =   337
(PID.TID 0000.0001) ADWRITE:  tapeFileCounter =   338
(PID.TID 0000.0001) ADWRITE:  tapeFileCounter =   339
(PID.TID 0000.0001) ADWRITE:  tapeFileCounter =   340
(PID.TID 0000.0001) ADWRITE:  tapeFileCounter =   341
(PID.TID 0000.0001) ADWRITE:  tapeFileCounter =   342
(PID.TID 0000.0001) ADWRITE:  tapeFileCounter =   343
(PID.TID 0000.0001) ADWRITE:  tapeFileCounter =   344
(PID.TID 0000.0001) ADWRITE:  tapeFileCounter =   345
(PID.TID 0000.0001) ADWRITE: tid,vid, irec, length, prec(x2)=    41    40     1      672  8 64 fname=tapelev2_40_the_main_loop_areamask0
(PID.TID 0000.0001) ADWRITE:  tapeFileCounter =   346
(PID.TID 0000.0001) ADWRITE: tid,vid, irec, length, prec(x2)=    41    41     1      672  8 64 fname=tapelev2_41_the_main_loop_areamask1
(PID.TID 0000.0001) ADWRITE:  tapeFileCounter =   347
(PID.TID 0000.0001) ADWRITE: tid,vid, irec, length, prec(x2)=    41    42     1      672  8 64 fname=tapelev2_42_the_main_loop_hflux0
(PID.TID 0000.0001) ADWRITE:  tapeFileCounter =   348
(PID.TID 0000.0001) ADWRITE: tid,vid, irec, length, prec(x2)=    41    43     1      672  8 64 fname=tapelev2_43_the_main_loop_hflux1
(PID.TID 0000.0001) ADWRITE:  tapeFileCounter =   349
(PID.TID 0000.0001) ADWRITE: tid,vid, irec, length, prec(x2)=    41    44     1      672  8 64 fname=tapelev2_44_the_main_loop_sflux0
(PID.TID 0000.0001) ADWRITE:  tapeFileCounter =   350
(PID.TID 0000.0001) ADWRITE: tid,vid, irec, length, prec(x2)=    41    45     1      672  8 64 fname=tapelev2_45_the_main_loop_sflux1
(PID.TID 0000.0001) ADWRITE:  tapeFileCounter =   351
(PID.TID 0000.0001) ADWRITE: tid,vid, irec, length, prec(x2)=    41    46     1      672  8 64 fname=tapelev2_46_the_main_loop_ustress0
(PID.TID 0000.0001) ADWRITE:  tapeFileCounter =   352
(PID.TID 0000.0001) ADWRITE: tid,vid, irec, length, prec(x2)=    41    47     1      672  8 64 fname=tapelev2_47_the_main_loop_ustress1
(PID.TID 0000.0001) ADWRITE:  tapeFileCounter =   353
(PID.TID 0000.0001) ADWRITE: tid,vid, irec, length, prec(x2)=    41    48     1      672  8 64 fname=tapelev2_48_the_main_loop_vstress0
(PID.TID 0000.0001) ADWRITE:  tapeFileCounter =   354
(PID.TID 0000.0001) ADWRITE: tid,vid, irec, length, prec(x2)=    41    49     1      672  8 64 fname=tapelev2_49_the_main_loop_vstress1
(PID.TID 0000.0001) ADWRITE:  tapeFileCounter =   355
(PID.TID 0000.0001) ADWRITE: tid,vid, irec, length, prec(x2)=    41    50     1      672  8 64 fname=tapelev2_50_the_main_loop_wspeed0
(PID.TID 0000.0001) ADWRITE:  tapeFileCounter =   356
(PID.TID 0000.0001) ADWRITE: tid,vid, irec, length, prec(x2)=    41    51     1      672  8 64 fname=tapelev2_51_the_main_loop_wspeed1
(PID.TID 0000.0001) ADWRITE:  tapeFileCounter =   357
(PID.TID 0000.0001) ADWRITE: tid,vid, irec, length, prec(x2)=    41    54     1      672  8 64 fname=tapelev2_54_the_main_loop_runoff0
(PID.TID 0000.0001) ADWRITE:  tapeFileCounter =   358
(PID.TID 0000.0001) ADWRITE: tid,vid, irec, length, prec(x2)=    41    55     1      672  8 64 fname=tapelev2_55_the_main_loop_runoff1
(PID.TID 0000.0001) ADWRITE:  tapeFileCounter =   359
(PID.TID 0000.0001) ADWRITE: tid,vid, irec, length, prec(x2)=    41    56     1      672  8 64 fname=tapelev2_56_the_main_loop_apressure0
(PID.TID 0000.0001) ADWRITE:  tapeFileCounter =   360
(PID.TID 0000.0001) ADWRITE: tid,vid, irec, length, prec(x2)=    41    57     1      672  8 64 fname=tapelev2_57_the_main_loop_apressure1
(PID.TID 0000.0001) ADWRITE:  tapeFileCounter =   361
(PID.TID 0000.0001) ADWRITE: tid,vid, irec, length, prec(x2)=    41    58     1      672  8 64 fname=tapelev2_58_the_main_loop_siceload
(PID.TID 0000.0001) ADWRITE:  tapeFileCounter =   362
(PID.TID 0000.0001) ADWRITE: tid,vid, irec, length, prec(x2)=    41    59     1      672  8 64 fname=tapelev2_59_the_main_loop_climsss0
(PID.TID 0000.0001) ADWRITE:  tapeFileCounter =   363
(PID.TID 0000.0001) ADWRITE: tid,vid, irec, length, prec(x2)=    41    60     1      672  8 64 fname=tapelev2_60_the_main_loop_climsss1
(PID.TID 0000.0001) ADWRITE:  tapeFileCounter =   364
(PID.TID 0000.0001) ADWRITE: tid,vid, irec, length, prec(x2)=    41    61     1      672  8 64 fname=tapelev2_61_the_main_loop_climsst0
(PID.TID 0000.0001) ADWRITE:  tapeFileCounter =   365
(PID.TID 0000.0001) ADWRITE: tid,vid, irec, length, prec(x2)=    41    62     1      672  8 64 fname=tapelev2_62_the_main_loop_climsst1
(PID.TID 0000.0001) ADWRITE:  tapeFileCounter =   366
(PID.TID 0000.0001) ADWRITE: tid,vid, irec, length, prec(x2)=    41    63     1      672  8 64 fname=tapelev2_63_the_main_loop_saltflx0
(PID.TID 0000.0001) ADWRITE:  tapeFileCounter =   367
(PID.TID 0000.0001) ADWRITE: tid,vid, irec, length, prec(x2)=    41    64     1      672  8 64 fname=tapelev2_64_the_main_loop_saltflx1
(PID.TID 0000.0001) ADWRITE:  tapeFileCounter =   368
(PID.TID 0000.0001) ADWRITE: tid,vid, irec, length, prec(x2)=    41    65     1      672  8 64 fname=tapelev2_65_the_main_loop_aqh0
(PID.TID 0000.0001) ADWRITE:  tapeFileCounter =   369
(PID.TID 0000.0001) ADWRITE: tid,vid, irec, length, prec(x2)=    41    66     1      672  8 64 fname=tapelev2_66_the_main_loop_aqh1
(PID.TID 0000.0001) ADWRITE:  tapeFileCounter =   370
(PID.TID 0000.0001) ADWRITE: tid,vid, irec, length, prec(x2)=    41    67     1      672  8 64 fname=tapelev2_67_the_main_loop_atemp0
(PID.TID 0000.0001) ADWRITE:  tapeFileCounter =   371
(PID.TID 0000.0001) ADWRITE: tid,vid, irec, length, prec(x2)=    41    68     1      672  8 64 fname=tapelev2_68_the_main_loop_atemp1
(PID.TID 0000.0001) ADWRITE:  tapeFileCounter =   372
(PID.TID 0000.0001) ADWRITE: tid,vid, irec, length, prec(x2)=    41    69     1      672  8 64 fname=tapelev2_69_the_main_loop_precip0
(PID.TID 0000.0001) ADWRITE:  tapeFileCounter =   373
(PID.TID 0000.0001) ADWRITE: tid,vid, irec, length, prec(x2)=    41    70     1      672  8 64 fname=tapelev2_70_the_main_loop_precip1
(PID.TID 0000.0001) ADWRITE:  tapeFileCounter =   374
(PID.TID 0000.0001) ADWRITE: tid,vid, irec, length, prec(x2)=    41    73     1      672  8 64 fname=tapelev2_73_the_main_loop_snowprecip0
(PID.TID 0000.0001) ADWRITE:  tapeFileCounter =   375
(PID.TID 0000.0001) ADWRITE: tid,vid, irec, length, prec(x2)=    41    74     1      672  8 64 fname=tapelev2_74_the_main_loop_snowprecip1
(PID.TID 0000.0001) ADWRITE:  tapeFileCounter =   376
(PID.TID 0000.0001) ADWRITE: tid,vid, irec, length, prec(x2)=    41    75     1      672  8 64 fname=tapelev2_75_the_main_loop_swdown0
(PID.TID 0000.0001) ADWRITE:  tapeFileCounter =   377
(PID.TID 0000.0001) ADWRITE: tid,vid, irec, length, prec(x2)=    41    76     1      672  8 64 fname=tapelev2_76_the_main_loop_swdown1
(PID.TID 0000.0001) ADWRITE:  tapeFileCounter =   378
(PID.TID 0000.0001) ADWRITE: tid,vid, irec, length, prec(x2)=    41    77     1      672  8 64 fname=tapelev2_77_the_main_loop_lwdown0
(PID.TID 0000.0001) ADWRITE:  tapeFileCounter =   379
(PID.TID 0000.0001) ADWRITE: tid,vid, irec, length, prec(x2)=    41    78     1      672  8 64 fname=tapelev2_78_the_main_loop_lwdown1
(PID.TID 0000.0001) ADWRITE:  tapeFileCounter =   380
(PID.TID 0000.0001) ADWRITE: tid,vid, irec, length, prec(x2)=    41    79     1      672  8 64 fname=tapelev2_79_the_main_loop_uwind0
(PID.TID 0000.0001) ADWRITE:  tapeFileCounter =   381
(PID.TID 0000.0001) ADWRITE: tid,vid, irec, length, prec(x2)=    41    80     1      672  8 64 fname=tapelev2_80_the_main_loop_uwind1
(PID.TID 0000.0001) ADWRITE:  tapeFileCounter =   382
(PID.TID 0000.0001) ADWRITE: tid,vid, irec, length, prec(x2)=    41    81     1      672  8 64 fname=tapelev2_81_the_main_loop_vwind0
(PID.TID 0000.0001) ADWRITE:  tapeFileCounter =   383
(PID.TID 0000.0001) ADWRITE: tid,vid, irec, length, prec(x2)=    41    82     1      672  8 64 fname=tapelev2_82_the_main_loop_vwind1
(PID.TID 0000.0001) ADWRITE:  tapeFileCounter =   384
(PID.TID 0000.0001) ADWRITE: tid,vid, irec, length, prec(x2)=    41    83     1     6048  8 64 fname=tapelev2_83_the_main_loop_xx_gentim2d
(PID.TID 0000.0001) ADWRITE:  tapeFileCounter =   385
(PID.TID 0000.0001) ADWRITE:  tapeFileCounter =   386
(PID.TID 0000.0001) ADWRITE:  tapeFileCounter =   387
(PID.TID 0000.0001) ADWRITE:  tapeFileCounter =   388
(PID.TID 0000.0001) ADWRITE:  tapeFileCounter =   389
(PID.TID 0000.0001) ADWRITE:  tapeFileCounter =   390
(PID.TID 0000.0001) ADWRITE:  tapeFileCounter =   391
(PID.TID 0000.0001) ADWRITE:  tapeFileCounter =   392
(PID.TID 0000.0001) ADWRITE:  tapeFileCounter =   393
(PID.TID 0000.0001) ADWRITE: tid,vid, irec, length, prec(x2)=    41    84     1     6048  8 64 fname=tapelev2_84_the_main_loop_xx_gentim2d0
(PID.TID 0000.0001) ADWRITE:  tapeFileCounter =   394
(PID.TID 0000.0001) ADWRITE:  tapeFileCounter =   395
(PID.TID 0000.0001) ADWRITE:  tapeFileCounter =   396
(PID.TID 0000.0001) ADWRITE:  tapeFileCounter =   397
(PID.TID 0000.0001) ADWRITE:  tapeFileCounter =   398
(PID.TID 0000.0001) ADWRITE:  tapeFileCounter =   399
(PID.TID 0000.0001) ADWRITE:  tapeFileCounter =   400
(PID.TID 0000.0001) ADWRITE:  tapeFileCounter =   401
(PID.TID 0000.0001) ADWRITE:  tapeFileCounter =   402
(PID.TID 0000.0001) ADWRITE: tid,vid, irec, length, prec(x2)=    41    85     1     6048  8 64 fname=tapelev2_85_the_main_loop_xx_gentim2d1
(PID.TID 0000.0001) ADWRITE:  tapeFileCounter =   403
(PID.TID 0000.0001) ADWRITE:  tapeFileCounter =   404
(PID.TID 0000.0001) ADWRITE:  tapeFileCounter =   405
(PID.TID 0000.0001) ADWRITE:  tapeFileCounter =   406
(PID.TID 0000.0001) ADWRITE:  tapeFileCounter =   407
(PID.TID 0000.0001) ADWRITE:  tapeFileCounter =   408
(PID.TID 0000.0001) ADWRITE:  tapeFileCounter =   409
(PID.TID 0000.0001) ADWRITE:  tapeFileCounter =   410
(PID.TID 0000.0001) ADWRITE:  tapeFileCounter =   411
(PID.TID 0000.0001) ADWRITE: tid,vid, irec, length, prec(x2)=    41    87     1      672  8 64 fname=tapelev2_87_the_main_loop_phihydlow
(PID.TID 0000.0001) ADWRITE:  tapeFileCounter =   412
(PID.TID 0000.0001) ADWRITE: tid,vid, irec, length, prec(x2)=    41    88     1      672  8 64 fname=tapelev2_88_the_main_loop_area
(PID.TID 0000.0001) ADWRITE:  tapeFileCounter =   413
(PID.TID 0000.0001) ADWRITE: tid,vid, irec, length, prec(x2)=    41    89     1      672  8 64 fname=tapelev2_89_the_main_loop_heff
(PID.TID 0000.0001) ADWRITE:  tapeFileCounter =   414
(PID.TID 0000.0001) ADWRITE: tid,vid, irec, length, prec(x2)=    41    90     1      672  8 64 fname=tapelev2_90_the_main_loop_hsnow
(PID.TID 0000.0001) ADWRITE:  tapeFileCounter =   415
(PID.TID 0000.0001) ADWRITE: tid,vid, irec, length, prec(x2)=    41    92     1      672  8 64 fname=tapelev2_92_the_main_loop_uice
(PID.TID 0000.0001) ADWRITE:  tapeFileCounter =   416
(PID.TID 0000.0001) ADWRITE: tid,vid, irec, length, prec(x2)=    41    93     1      672  8 64 fname=tapelev2_93_the_main_loop_vice
(PID.TID 0000.0001) ADWRITE:  tapeFileCounter =   417
(PID.TID 0000.0001) ADWRITE: tid,vid, irec, length, prec(x2)=    41    96     1     4704  8 64 fname=tapelev2_96_the_main_loop_tices
(PID.TID 0000.0001) ADWRITE:  tapeFileCounter =   418
(PID.TID 0000.0001) ADWRITE:  tapeFileCounter =   419
(PID.TID 0000.0001) ADWRITE:  tapeFileCounter =   420
(PID.TID 0000.0001) ADWRITE:  tapeFileCounter =   421
(PID.TID 0000.0001) ADWRITE:  tapeFileCounter =   422
(PID.TID 0000.0001) ADWRITE:  tapeFileCounter =   423
(PID.TID 0000.0001) ADWRITE:  tapeFileCounter =   424
(PID.TID 0000.0001) ADWRITE: tid,vid, irec, length, prec(x2)=    41    97     1      672  8 64 fname=tapelev2_97_the_main_loop_dwatn
(PID.TID 0000.0001) ADWRITE:  tapeFileCounter =   425
(PID.TID 0000.0001) ADWRITE: tid,vid, irec, length, prec(x2)=    41    98     1      672  8 64 fname=tapelev2_98_the_main_loop_stressdivergencex
(PID.TID 0000.0001) ADWRITE:  tapeFileCounter =   426
(PID.TID 0000.0001) ADWRITE: tid,vid, irec, length, prec(x2)=    41    99     1      672  8 64 fname=tapelev2_99_the_main_loop_stressdivergencey
(PID.TID 0000.0001) ADWRITE:  tapeFileCounter =   427
(PID.TID 0000.0001) ADWRITE: tid,vid, irec, length, prec(x2)=    41   100     1      672  8 64 fname=tapelev2_100_the_main_loop_seaice_sigma1
(PID.TID 0000.0001) ADWRITE:  tapeFileCounter =   428
(PID.TID 0000.0001) ADWRITE: tid,vid, irec, length, prec(x2)=    41   101     1      672  8 64 fname=tapelev2_101_the_main_loop_seaice_sigma2
(PID.TID 0000.0001) ADWRITE:  tapeFileCounter =   429
(PID.TID 0000.0001) ADWRITE: tid,vid, irec, length, prec(x2)=    41   102     1      672  8 64 fname=tapelev2_102_the_main_loop_seaice_sigma12
(PID.TID 0000.0001) ADWRITE:  tapeFileCounter =   430
(PID.TID 0000.0001) ADWRITE: tid,vid, irec, length, prec(x2)=    41   103     1      672  8 64 fname=tapelev2_103_the_main_loop_hsalt
(PID.TID 0000.0001) ADWRITE:  tapeFileCounter =   431
(PID.TID 0000.0001) whio : write lev 2 rec   1
(PID.TID 0000.0001)  MDS_READ_FIELD: opening global file: xx_atemp.effective.0000000001.data
(PID.TID 0000.0001)  MDS_READ_FIELD: opening global file: xx_atemp.effective.0000000001.data
(PID.TID 0000.0001) EXF_SET_FLD: processing field "climsss",  file: SSS_monthly.labsea1979
(PID.TID 0000.0001) EXF_SET_FLD:   myIter, count0, count1:         5      1      2
(PID.TID 0000.0001) EXF_SET_FLD:   first, changed, fac:   T   F    0.49316939890710387
(PID.TID 0000.0001) EXF_SET_FLD: field "climsss", it=         5, loading rec=     1
(PID.TID 0000.0001) EXF_SET_FLD:   from file: "SSS_monthly.labsea1979"
(PID.TID 0000.0001)  MDS_READ_FIELD: opening global file: SSS_monthly.labsea1979
(PID.TID 0000.0001) EXF_SET_FLD: field "climsss", it=         5, loading rec=     2
(PID.TID 0000.0001) EXF_SET_FLD:   from file: "SSS_monthly.labsea1979"
(PID.TID 0000.0001)  MDS_READ_FIELD: opening global file: SSS_monthly.labsea1979
(PID.TID 0000.0001) EXF_SET_FLD: processing field "uwind",  file: u10m.labsea1979
(PID.TID 0000.0001) EXF_SET_FLD:   myIter, count0, count1:         5      1      2
(PID.TID 0000.0001) EXF_SET_FLD:   first, changed, fac:   T   F    0.49316939890710387
(PID.TID 0000.0001) EXF_SET_FLD: field "uwind", it=         5, loading rec=     1
(PID.TID 0000.0001) EXF_SET_FLD:   from file: "u10m.labsea1979"
(PID.TID 0000.0001)  MDS_READ_FIELD: opening global file: u10m.labsea1979
(PID.TID 0000.0001) EXF_SET_FLD: field "uwind", it=         5, loading rec=     2
(PID.TID 0000.0001) EXF_SET_FLD:   from file: "u10m.labsea1979"
(PID.TID 0000.0001)  MDS_READ_FIELD: opening global file: u10m.labsea1979
(PID.TID 0000.0001) EXF_SET_FLD: processing field "vwind",  file: v10m.labsea1979
(PID.TID 0000.0001) EXF_SET_FLD:   myIter, count0, count1:         5      1      2
(PID.TID 0000.0001) EXF_SET_FLD:   first, changed, fac:   T   F    0.49316939890710387
(PID.TID 0000.0001) EXF_SET_FLD: field "vwind", it=         5, loading rec=     1
(PID.TID 0000.0001) EXF_SET_FLD:   from file: "v10m.labsea1979"
(PID.TID 0000.0001)  MDS_READ_FIELD: opening global file: v10m.labsea1979
(PID.TID 0000.0001) EXF_SET_FLD: field "vwind", it=         5, loading rec=     2
(PID.TID 0000.0001) EXF_SET_FLD:   from file: "v10m.labsea1979"
(PID.TID 0000.0001)  MDS_READ_FIELD: opening global file: v10m.labsea1979
(PID.TID 0000.0001) EXF_SET_FLD: processing field "atemp",  file: tair.labsea1979
(PID.TID 0000.0001) EXF_SET_FLD:   myIter, count0, count1:         5      1      2
(PID.TID 0000.0001) EXF_SET_FLD:   first, changed, fac:   T   F    0.49316939890710387
(PID.TID 0000.0001) EXF_SET_FLD: field "atemp", it=         5, loading rec=     1
(PID.TID 0000.0001) EXF_SET_FLD:   from file: "tair.labsea1979"
(PID.TID 0000.0001)  MDS_READ_FIELD: opening global file: tair.labsea1979
(PID.TID 0000.0001) EXF_SET_FLD: field "atemp", it=         5, loading rec=     2
(PID.TID 0000.0001) EXF_SET_FLD:   from file: "tair.labsea1979"
(PID.TID 0000.0001)  MDS_READ_FIELD: opening global file: tair.labsea1979
(PID.TID 0000.0001) EXF_SET_FLD: processing field "aqh",  file: qa.labsea1979
(PID.TID 0000.0001) EXF_SET_FLD:   myIter, count0, count1:         5      1      2
(PID.TID 0000.0001) EXF_SET_FLD:   first, changed, fac:   T   F    0.49316939890710387
(PID.TID 0000.0001) EXF_SET_FLD: field "aqh", it=         5, loading rec=     1
(PID.TID 0000.0001) EXF_SET_FLD:   from file: "qa.labsea1979"
(PID.TID 0000.0001)  MDS_READ_FIELD: opening global file: qa.labsea1979
(PID.TID 0000.0001) EXF_SET_FLD: field "aqh", it=         5, loading rec=     2
(PID.TID 0000.0001) EXF_SET_FLD:   from file: "qa.labsea1979"
(PID.TID 0000.0001)  MDS_READ_FIELD: opening global file: qa.labsea1979
(PID.TID 0000.0001) EXF_SET_FLD: processing field "precip",  file: prate.labsea1979
(PID.TID 0000.0001) EXF_SET_FLD:   myIter, count0, count1:         5      1      2
(PID.TID 0000.0001) EXF_SET_FLD:   first, changed, fac:   T   F    0.49316939890710387
(PID.TID 0000.0001) EXF_SET_FLD: field "precip", it=         5, loading rec=     1
(PID.TID 0000.0001) EXF_SET_FLD:   from file: "prate.labsea1979"
(PID.TID 0000.0001)  MDS_READ_FIELD: opening global file: prate.labsea1979
(PID.TID 0000.0001) EXF_SET_FLD: field "precip", it=         5, loading rec=     2
(PID.TID 0000.0001) EXF_SET_FLD:   from file: "prate.labsea1979"
(PID.TID 0000.0001)  MDS_READ_FIELD: opening global file: prate.labsea1979
(PID.TID 0000.0001) EXF_SET_FLD: processing field "swdown",  file: fsh.labsea1979
(PID.TID 0000.0001) EXF_SET_FLD:   myIter, count0, count1:         5      1      2
(PID.TID 0000.0001) EXF_SET_FLD:   first, changed, fac:   T   F    0.49316939890710387
(PID.TID 0000.0001) EXF_SET_FLD: field "swdown", it=         5, loading rec=     1
(PID.TID 0000.0001) EXF_SET_FLD:   from file: "fsh.labsea1979"
(PID.TID 0000.0001)  MDS_READ_FIELD: opening global file: fsh.labsea1979
(PID.TID 0000.0001) EXF_SET_FLD: field "swdown", it=         5, loading rec=     2
(PID.TID 0000.0001) EXF_SET_FLD:   from file: "fsh.labsea1979"
(PID.TID 0000.0001)  MDS_READ_FIELD: opening global file: fsh.labsea1979
(PID.TID 0000.0001) EXF_SET_FLD: processing field "lwdown",  file: flo.labsea1979
(PID.TID 0000.0001) EXF_SET_FLD:   myIter, count0, count1:         5      1      2
(PID.TID 0000.0001) EXF_SET_FLD:   first, changed, fac:   T   F    0.49316939890710387
(PID.TID 0000.0001) EXF_SET_FLD: field "lwdown", it=         5, loading rec=     1
(PID.TID 0000.0001) EXF_SET_FLD:   from file: "flo.labsea1979"
(PID.TID 0000.0001)  MDS_READ_FIELD: opening global file: flo.labsea1979
(PID.TID 0000.0001) EXF_SET_FLD: field "lwdown", it=         5, loading rec=     2
(PID.TID 0000.0001) EXF_SET_FLD:   from file: "flo.labsea1979"
(PID.TID 0000.0001)  MDS_READ_FIELD: opening global file: flo.labsea1979
DEBUG_STATS_RL: Uice pre  iter (SEAICE_LSR  1)  min= -9.02121933428159E-03
DEBUG_STATS_RL: Uice pre  iter (SEAICE_LSR  1)  max=  2.19445684647109E-01
DEBUG_STATS_RL: Uice pre  iter (SEAICE_LSR  1) mean=  6.96639305502532E-02
DEBUG_STATS_RL: Uice pre  iter (SEAICE_LSR  1) S.D.=  7.25590715280224E-02
DEBUG_STATS_RL: Vice pre  iter (SEAICE_LSR  1)  min= -1.73112057819563E-01
DEBUG_STATS_RL: Vice pre  iter (SEAICE_LSR  1)  max=  1.05174802576008E-01
DEBUG_STATS_RL: Vice pre  iter (SEAICE_LSR  1) mean= -3.44957645455127E-02
DEBUG_STATS_RL: Vice pre  iter (SEAICE_LSR  1) S.D.=  5.17027322842165E-02
DEBUG_STATS_RL: Uice pre  iter (SEAICE_LSR  2)  min= -9.93295031152210E-03
DEBUG_STATS_RL: Uice pre  iter (SEAICE_LSR  2)  max=  2.37649472779152E-01
DEBUG_STATS_RL: Uice pre  iter (SEAICE_LSR  2) mean=  7.08960993522900E-02
DEBUG_STATS_RL: Uice pre  iter (SEAICE_LSR  2) S.D.=  7.51814019583860E-02
DEBUG_STATS_RL: Vice pre  iter (SEAICE_LSR  2)  min= -1.73458139241626E-01
DEBUG_STATS_RL: Vice pre  iter (SEAICE_LSR  2)  max=  1.02503634704982E-01
DEBUG_STATS_RL: Vice pre  iter (SEAICE_LSR  2) mean= -3.89801386768760E-02
DEBUG_STATS_RL: Vice pre  iter (SEAICE_LSR  2) S.D.=  5.44920749395038E-02
DEBUG_STATS_RL:                EtaN (DYNAMICS)  min= -1.29709672821213E-01
DEBUG_STATS_RL:                EtaN (DYNAMICS)  max=  3.25626876398477E-01
DEBUG_STATS_RL:                EtaN (DYNAMICS) mean= -3.00841690122536E-03
DEBUG_STATS_RL:                EtaN (DYNAMICS) S.D.=  7.54180814594036E-02
DEBUG_STATS_RL:                Uvel (DYNAMICS)  min= -3.64296443204224E-02
DEBUG_STATS_RL:                Uvel (DYNAMICS)  max=  8.91662112566489E-02
DEBUG_STATS_RL:                Uvel (DYNAMICS) mean=  5.18186102505262E-03
DEBUG_STATS_RL:                Uvel (DYNAMICS) S.D.=  1.36791834404111E-02
DEBUG_STATS_RL:                Vvel (DYNAMICS)  min= -8.48427067731397E-02
DEBUG_STATS_RL:                Vvel (DYNAMICS)  max=  7.15709637633448E-02
DEBUG_STATS_RL:                Vvel (DYNAMICS) mean= -6.25663991250223E-04
DEBUG_STATS_RL:                Vvel (DYNAMICS) S.D.=  1.65568599029307E-02
DEBUG_STATS_RL:                Wvel (DYNAMICS)  min= -2.02998023749463E-04
DEBUG_STATS_RL:                Wvel (DYNAMICS)  max=  3.07634744219620E-04
DEBUG_STATS_RL:                Wvel (DYNAMICS) mean= -2.14485636605179E-07
DEBUG_STATS_RL:                Wvel (DYNAMICS) S.D.=  2.56514188295233E-05
DEBUG_STATS_RL:               Theta (DYNAMICS)  min= -1.95891909892377E+00
DEBUG_STATS_RL:               Theta (DYNAMICS)  max=  1.32575107273067E+01
DEBUG_STATS_RL:               Theta (DYNAMICS) mean=  2.41560973729717E+00
DEBUG_STATS_RL:               Theta (DYNAMICS) S.D.=  2.57506629522921E+00
DEBUG_STATS_RL:                Salt (DYNAMICS)  min=  2.76241835718781E+01
DEBUG_STATS_RL:                Salt (DYNAMICS)  max=  3.54512322319690E+01
DEBUG_STATS_RL:                Salt (DYNAMICS) mean=  3.39367610972827E+01
DEBUG_STATS_RL:                Salt (DYNAMICS) S.D.=  1.15400523729775E+00
DEBUG_STATS_RL:                  Gu (DYNAMICS)  min= -3.40661284878781E-02
DEBUG_STATS_RL:                  Gu (DYNAMICS)  max=  1.09592409505601E-01
DEBUG_STATS_RL:                  Gu (DYNAMICS) mean=  3.43340148231612E-03
DEBUG_STATS_RL:                  Gu (DYNAMICS) S.D.=  1.52106643070904E-02
DEBUG_STATS_RL:                  Gv (DYNAMICS)  min= -1.19743996000496E-01
DEBUG_STATS_RL:                  Gv (DYNAMICS)  max=  5.31755908727337E-02
DEBUG_STATS_RL:                  Gv (DYNAMICS) mean= -6.43607759844673E-03
DEBUG_STATS_RL:                  Gv (DYNAMICS) S.D.=  1.74595586593132E-02
DEBUG_STATS_RL:               GuNm1 (DYNAMICS)  min= -2.94347299884301E-07
DEBUG_STATS_RL:               GuNm1 (DYNAMICS)  max=  1.78770581560375E-07
DEBUG_STATS_RL:               GuNm1 (DYNAMICS) mean= -3.06311171945198E-09
DEBUG_STATS_RL:               GuNm1 (DYNAMICS) S.D.=  4.19614199163276E-08
DEBUG_STATS_RL:               GvNm1 (DYNAMICS)  min= -1.82273635415880E-07
DEBUG_STATS_RL:               GvNm1 (DYNAMICS)  max=  1.24273330978528E-07
DEBUG_STATS_RL:               GvNm1 (DYNAMICS) mean= -1.05360009952046E-09
DEBUG_STATS_RL:               GvNm1 (DYNAMICS) S.D.=  3.58773704868012E-08
DEBUG_STATS_RL:               GtNm1 (DYNAMICS)  min=  0.00000000000000E+00
DEBUG_STATS_RL:               GtNm1 (DYNAMICS)  max=  0.00000000000000E+00
DEBUG_STATS_RL:               GtNm1 (DYNAMICS) mean=  0.00000000000000E+00
DEBUG_STATS_RL:               GtNm1 (DYNAMICS) S.D.=  0.00000000000000E+00
DEBUG_STATS_RL:               GsNm1 (DYNAMICS)  min=  0.00000000000000E+00
DEBUG_STATS_RL:               GsNm1 (DYNAMICS)  max=  0.00000000000000E+00
DEBUG_STATS_RL:               GsNm1 (DYNAMICS) mean=  0.00000000000000E+00
DEBUG_STATS_RL:               GsNm1 (DYNAMICS) S.D.=  0.00000000000000E+00
(PID.TID 0000.0001) SOLVE_FOR_PRESSURE: putPmEinXvector =    F
DEBUG_STATS_RL:    cg2d_b (SOLVE_FOR_PRESSURE)  min= -7.45833771571459E+03
DEBUG_STATS_RL:    cg2d_b (SOLVE_FOR_PRESSURE)  max=  2.17494903027769E+03
DEBUG_STATS_RL:    cg2d_b (SOLVE_FOR_PRESSURE) mean=  4.18935997004155E-13
DEBUG_STATS_RL:    cg2d_b (SOLVE_FOR_PRESSURE) S.D.=  9.06377010650268E+02
 cg2d: Sum(rhs),rhsMax =   8.29197821516914E-15  1.20041496847834E+00
DEBUG_STATS_RL:    cg2d_x (SOLVE_FOR_PRESSURE)  min= -1.23196163368130E+00
DEBUG_STATS_RL:    cg2d_x (SOLVE_FOR_PRESSURE)  max=  3.23727429689848E+00
DEBUG_STATS_RL:    cg2d_x (SOLVE_FOR_PRESSURE) mean= -3.45194761148230E-02
DEBUG_STATS_RL:    cg2d_x (SOLVE_FOR_PRESSURE) S.D.=  7.10912240392561E-01
DEBUG_STATS_RL:          Uvel (THERMODYNAMICS)  min= -3.59096386964102E-02
DEBUG_STATS_RL:          Uvel (THERMODYNAMICS)  max=  1.01288605318195E-01
DEBUG_STATS_RL:          Uvel (THERMODYNAMICS) mean=  5.06442107691443E-03
DEBUG_STATS_RL:          Uvel (THERMODYNAMICS) S.D.=  1.40087544095653E-02
DEBUG_STATS_RL:          Vvel (THERMODYNAMICS)  min= -1.10756263988798E-01
DEBUG_STATS_RL:          Vvel (THERMODYNAMICS)  max=  7.07208418107748E-02
DEBUG_STATS_RL:          Vvel (THERMODYNAMICS) mean= -2.17557054828444E-03
DEBUG_STATS_RL:          Vvel (THERMODYNAMICS) S.D.=  1.80912833066385E-02
DEBUG_STATS_RL:          Wvel (THERMODYNAMICS)  min= -2.43811460414301E-04
DEBUG_STATS_RL:          Wvel (THERMODYNAMICS)  max=  3.28816353261790E-04
DEBUG_STATS_RL:          Wvel (THERMODYNAMICS) mean= -1.37923543342930E-07
DEBUG_STATS_RL:          Wvel (THERMODYNAMICS) S.D.=  2.75149300864468E-05
DEBUG_STATS_RL:         Theta (THERMODYNAMICS)  min= -1.96015217723737E+00
DEBUG_STATS_RL:         Theta (THERMODYNAMICS)  max=  1.32512671183370E+01
DEBUG_STATS_RL:         Theta (THERMODYNAMICS) mean=  2.41531606071968E+00
DEBUG_STATS_RL:         Theta (THERMODYNAMICS) S.D.=  2.57483151675911E+00
DEBUG_STATS_RL:          Salt (THERMODYNAMICS)  min=  2.76290307531745E+01
DEBUG_STATS_RL:          Salt (THERMODYNAMICS)  max=  3.54512307060718E+01
DEBUG_STATS_RL:          Salt (THERMODYNAMICS) mean=  3.39367446276238E+01
DEBUG_STATS_RL:          Salt (THERMODYNAMICS) S.D.=  1.15382313156805E+00
DEBUG_STATS_RL:         GtNm1 (THERMODYNAMICS)  min=  0.00000000000000E+00
DEBUG_STATS_RL:         GtNm1 (THERMODYNAMICS)  max=  0.00000000000000E+00
DEBUG_STATS_RL:         GtNm1 (THERMODYNAMICS) mean=  0.00000000000000E+00
DEBUG_STATS_RL:         GtNm1 (THERMODYNAMICS) S.D.=  0.00000000000000E+00
DEBUG_STATS_RL:         GsNm1 (THERMODYNAMICS)  min=  0.00000000000000E+00
DEBUG_STATS_RL:         GsNm1 (THERMODYNAMICS)  max=  0.00000000000000E+00
DEBUG_STATS_RL:         GsNm1 (THERMODYNAMICS) mean=  0.00000000000000E+00
DEBUG_STATS_RL:         GsNm1 (THERMODYNAMICS) S.D.=  0.00000000000000E+00
(PID.TID 0000.0001)  MDS_READ_FIELD: opening global file: xx_atemp.effective.0000000001.data
(PID.TID 0000.0001) EXF_SET_FLD: processing field "climsss",  file: SSS_monthly.labsea1979
(PID.TID 0000.0001) EXF_SET_FLD:   myIter, count0, count1:         6      1      2
(PID.TID 0000.0001) EXF_SET_FLD:   first, changed, fac:   F   F    0.49180327868852458
(PID.TID 0000.0001) EXF_SET_FLD: processing field "uwind",  file: u10m.labsea1979
(PID.TID 0000.0001) EXF_SET_FLD:   myIter, count0, count1:         6      1      2
(PID.TID 0000.0001) EXF_SET_FLD:   first, changed, fac:   F   F    0.49180327868852458
(PID.TID 0000.0001) EXF_SET_FLD: processing field "vwind",  file: v10m.labsea1979
(PID.TID 0000.0001) EXF_SET_FLD:   myIter, count0, count1:         6      1      2
(PID.TID 0000.0001) EXF_SET_FLD:   first, changed, fac:   F   F    0.49180327868852458
(PID.TID 0000.0001) EXF_SET_FLD: processing field "atemp",  file: tair.labsea1979
(PID.TID 0000.0001) EXF_SET_FLD:   myIter, count0, count1:         6      1      2
(PID.TID 0000.0001) EXF_SET_FLD:   first, changed, fac:   F   F    0.49180327868852458
(PID.TID 0000.0001) EXF_SET_FLD: processing field "aqh",  file: qa.labsea1979
(PID.TID 0000.0001) EXF_SET_FLD:   myIter, count0, count1:         6      1      2
(PID.TID 0000.0001) EXF_SET_FLD:   first, changed, fac:   F   F    0.49180327868852458
(PID.TID 0000.0001) EXF_SET_FLD: processing field "precip",  file: prate.labsea1979
(PID.TID 0000.0001) EXF_SET_FLD:   myIter, count0, count1:         6      1      2
(PID.TID 0000.0001) EXF_SET_FLD:   first, changed, fac:   F   F    0.49180327868852458
(PID.TID 0000.0001) EXF_SET_FLD: processing field "swdown",  file: fsh.labsea1979
(PID.TID 0000.0001) EXF_SET_FLD:   myIter, count0, count1:         6      1      2
(PID.TID 0000.0001) EXF_SET_FLD:   first, changed, fac:   F   F    0.49180327868852458
(PID.TID 0000.0001) EXF_SET_FLD: processing field "lwdown",  file: flo.labsea1979
(PID.TID 0000.0001) EXF_SET_FLD:   myIter, count0, count1:         6      1      2
(PID.TID 0000.0001) EXF_SET_FLD:   first, changed, fac:   F   F    0.49180327868852458
DEBUG_STATS_RL: Uice pre  iter (SEAICE_LSR  1)  min= -1.19106759196614E-02
DEBUG_STATS_RL: Uice pre  iter (SEAICE_LSR  1)  max=  2.40859973799500E-01
DEBUG_STATS_RL: Uice pre  iter (SEAICE_LSR  1) mean=  7.02597534860948E-02
DEBUG_STATS_RL: Uice pre  iter (SEAICE_LSR  1) S.D.=  7.57773428259753E-02
DEBUG_STATS_RL: Vice pre  iter (SEAICE_LSR  1)  min= -1.74132342678207E-01
DEBUG_STATS_RL: Vice pre  iter (SEAICE_LSR  1)  max=  9.66358613081399E-02
DEBUG_STATS_RL: Vice pre  iter (SEAICE_LSR  1) mean= -4.28491368242810E-02
DEBUG_STATS_RL: Vice pre  iter (SEAICE_LSR  1) S.D.=  5.63763392291550E-02
DEBUG_STATS_RL: Uice pre  iter (SEAICE_LSR  2)  min= -1.30564509125757E-02
DEBUG_STATS_RL: Uice pre  iter (SEAICE_LSR  2)  max=  2.47901039964918E-01
DEBUG_STATS_RL: Uice pre  iter (SEAICE_LSR  2) mean=  6.80717062410296E-02
DEBUG_STATS_RL: Uice pre  iter (SEAICE_LSR  2) S.D.=  7.48548542542582E-02
DEBUG_STATS_RL: Vice pre  iter (SEAICE_LSR  2)  min= -1.68314830999124E-01
DEBUG_STATS_RL: Vice pre  iter (SEAICE_LSR  2)  max=  8.87290074915900E-02
DEBUG_STATS_RL: Vice pre  iter (SEAICE_LSR  2) mean= -4.61137817409455E-02
DEBUG_STATS_RL: Vice pre  iter (SEAICE_LSR  2) S.D.=  5.74118961796309E-02
DEBUG_STATS_RL:                EtaN (DYNAMICS)  min= -1.25510578434462E-01
DEBUG_STATS_RL:                EtaN (DYNAMICS)  max=  3.29809109672203E-01
DEBUG_STATS_RL:                EtaN (DYNAMICS) mean= -3.51679735470302E-03
DEBUG_STATS_RL:                EtaN (DYNAMICS) S.D.=  7.24267737471536E-02
DEBUG_STATS_RL:                Uvel (DYNAMICS)  min= -3.59096386964102E-02
DEBUG_STATS_RL:                Uvel (DYNAMICS)  max=  1.01288605318195E-01
DEBUG_STATS_RL:                Uvel (DYNAMICS) mean=  5.06442107691443E-03
DEBUG_STATS_RL:                Uvel (DYNAMICS) S.D.=  1.40087544095653E-02
DEBUG_STATS_RL:                Vvel (DYNAMICS)  min= -1.10756263988798E-01
DEBUG_STATS_RL:                Vvel (DYNAMICS)  max=  7.07208418107748E-02
DEBUG_STATS_RL:                Vvel (DYNAMICS) mean= -2.17557054828444E-03
DEBUG_STATS_RL:                Vvel (DYNAMICS) S.D.=  1.80912833066385E-02
DEBUG_STATS_RL:                Wvel (DYNAMICS)  min= -2.43811460414301E-04
DEBUG_STATS_RL:                Wvel (DYNAMICS)  max=  3.28816353261790E-04
DEBUG_STATS_RL:                Wvel (DYNAMICS) mean= -1.37923543342930E-07
DEBUG_STATS_RL:                Wvel (DYNAMICS) S.D.=  2.75149300864468E-05
DEBUG_STATS_RL:               Theta (DYNAMICS)  min= -1.96015217723737E+00
DEBUG_STATS_RL:               Theta (DYNAMICS)  max=  1.32512671183370E+01
DEBUG_STATS_RL:               Theta (DYNAMICS) mean=  2.41531606071968E+00
DEBUG_STATS_RL:               Theta (DYNAMICS) S.D.=  2.57483151675911E+00
DEBUG_STATS_RL:                Salt (DYNAMICS)  min=  2.76290307531745E+01
DEBUG_STATS_RL:                Salt (DYNAMICS)  max=  3.54512307060718E+01
DEBUG_STATS_RL:                Salt (DYNAMICS) mean=  3.39367446276238E+01
DEBUG_STATS_RL:                Salt (DYNAMICS) S.D.=  1.15382313156805E+00
DEBUG_STATS_RL:                  Gu (DYNAMICS)  min= -4.45840116890899E-02
DEBUG_STATS_RL:                  Gu (DYNAMICS)  max=  1.13252404039500E-01
DEBUG_STATS_RL:                  Gu (DYNAMICS) mean=  3.02808241161229E-03
DEBUG_STATS_RL:                  Gu (DYNAMICS) S.D.=  1.59063121238893E-02
DEBUG_STATS_RL:                  Gv (DYNAMICS)  min= -1.34630447324912E-01
DEBUG_STATS_RL:                  Gv (DYNAMICS)  max=  4.81174890382835E-02
DEBUG_STATS_RL:                  Gv (DYNAMICS) mean= -7.41639241987065E-03
DEBUG_STATS_RL:                  Gv (DYNAMICS) S.D.=  1.85638365104700E-02
DEBUG_STATS_RL:               GuNm1 (DYNAMICS)  min= -3.33271036892904E-07
DEBUG_STATS_RL:               GuNm1 (DYNAMICS)  max=  1.87479663955270E-07
DEBUG_STATS_RL:               GuNm1 (DYNAMICS) mean= -3.31200046769952E-09
DEBUG_STATS_RL:               GuNm1 (DYNAMICS) S.D.=  4.08419141881971E-08
DEBUG_STATS_RL:               GvNm1 (DYNAMICS)  min= -2.04912919624491E-07
DEBUG_STATS_RL:               GvNm1 (DYNAMICS)  max=  1.56710147054438E-07
DEBUG_STATS_RL:               GvNm1 (DYNAMICS) mean= -8.96938696731291E-10
DEBUG_STATS_RL:               GvNm1 (DYNAMICS) S.D.=  3.95873164870957E-08
DEBUG_STATS_RL:               GtNm1 (DYNAMICS)  min=  0.00000000000000E+00
DEBUG_STATS_RL:               GtNm1 (DYNAMICS)  max=  0.00000000000000E+00
DEBUG_STATS_RL:               GtNm1 (DYNAMICS) mean=  0.00000000000000E+00
DEBUG_STATS_RL:               GtNm1 (DYNAMICS) S.D.=  0.00000000000000E+00
DEBUG_STATS_RL:               GsNm1 (DYNAMICS)  min=  0.00000000000000E+00
DEBUG_STATS_RL:               GsNm1 (DYNAMICS)  max=  0.00000000000000E+00
DEBUG_STATS_RL:               GsNm1 (DYNAMICS) mean=  0.00000000000000E+00
DEBUG_STATS_RL:               GsNm1 (DYNAMICS) S.D.=  0.00000000000000E+00
DEBUG_STATS_RL:    cg2d_b (SOLVE_FOR_PRESSURE)  min= -7.43169656861245E+03
DEBUG_STATS_RL:    cg2d_b (SOLVE_FOR_PRESSURE)  max=  2.17598296942634E+03
DEBUG_STATS_RL:    cg2d_b (SOLVE_FOR_PRESSURE) mean=  6.96331881044898E-13
DEBUG_STATS_RL:    cg2d_b (SOLVE_FOR_PRESSURE) S.D.=  9.02750100849735E+02
 cg2d: Sum(rhs),rhsMax =   1.41067713066434E-14  1.19612709187932E+00
DEBUG_STATS_RL:    cg2d_x (SOLVE_FOR_PRESSURE)  min= -1.18794061890904E+00
DEBUG_STATS_RL:    cg2d_x (SOLVE_FOR_PRESSURE)  max=  3.24511049575726E+00
DEBUG_STATS_RL:    cg2d_x (SOLVE_FOR_PRESSURE) mean= -3.88654400025836E-02
DEBUG_STATS_RL:    cg2d_x (SOLVE_FOR_PRESSURE) S.D.=  6.81167535252279E-01
DEBUG_STATS_RL:          Uvel (THERMODYNAMICS)  min= -3.57601727936033E-02
DEBUG_STATS_RL:          Uvel (THERMODYNAMICS)  max=  1.04775938290593E-01
DEBUG_STATS_RL:          Uvel (THERMODYNAMICS) mean=  4.39725630125182E-03
DEBUG_STATS_RL:          Uvel (THERMODYNAMICS) S.D.=  1.39028540310335E-02
DEBUG_STATS_RL:          Vvel (THERMODYNAMICS)  min= -1.27584762387762E-01
DEBUG_STATS_RL:          Vvel (THERMODYNAMICS)  max=  6.50083276838834E-02
DEBUG_STATS_RL:          Vvel (THERMODYNAMICS) mean= -3.36887217582008E-03
DEBUG_STATS_RL:          Vvel (THERMODYNAMICS) S.D.=  1.85890275650197E-02
DEBUG_STATS_RL:          Wvel (THERMODYNAMICS)  min= -2.67954696014334E-04
DEBUG_STATS_RL:          Wvel (THERMODYNAMICS)  max=  3.29804232734301E-04
DEBUG_STATS_RL:          Wvel (THERMODYNAMICS) mean= -4.85616750767614E-08
DEBUG_STATS_RL:          Wvel (THERMODYNAMICS) S.D.=  2.84164537902804E-05
DEBUG_STATS_RL:         Theta (THERMODYNAMICS)  min= -1.95963016104374E+00
DEBUG_STATS_RL:         Theta (THERMODYNAMICS)  max=  1.32396343409662E+01
DEBUG_STATS_RL:         Theta (THERMODYNAMICS) mean=  2.41506584132490E+00
DEBUG_STATS_RL:         Theta (THERMODYNAMICS) S.D.=  2.57443936967394E+00
DEBUG_STATS_RL:          Salt (THERMODYNAMICS)  min=  2.76338867569799E+01
DEBUG_STATS_RL:          Salt (THERMODYNAMICS)  max=  3.54511617149686E+01
DEBUG_STATS_RL:          Salt (THERMODYNAMICS) mean=  3.39367496241626E+01
DEBUG_STATS_RL:          Salt (THERMODYNAMICS) S.D.=  1.15359229307638E+00
DEBUG_STATS_RL:         GtNm1 (THERMODYNAMICS)  min=  0.00000000000000E+00
DEBUG_STATS_RL:         GtNm1 (THERMODYNAMICS)  max=  0.00000000000000E+00
DEBUG_STATS_RL:         GtNm1 (THERMODYNAMICS) mean=  0.00000000000000E+00
DEBUG_STATS_RL:         GtNm1 (THERMODYNAMICS) S.D.=  0.00000000000000E+00
DEBUG_STATS_RL:         GsNm1 (THERMODYNAMICS)  min=  0.00000000000000E+00
DEBUG_STATS_RL:         GsNm1 (THERMODYNAMICS)  max=  0.00000000000000E+00
DEBUG_STATS_RL:         GsNm1 (THERMODYNAMICS) mean=  0.00000000000000E+00
DEBUG_STATS_RL:         GsNm1 (THERMODYNAMICS) S.D.=  0.00000000000000E+00
(PID.TID 0000.0001) ADWRITE: tid,vid, irec, length, prec(x2)=    41     1     2      672  8 64 fname=tapelev2_1_the_main_loop_etan
(PID.TID 0000.0001) ADWRITE:  tapeFileCounter =     1
(PID.TID 0000.0001) ADWRITE: tid,vid, irec, length, prec(x2)=    41     2     2      672  8 64 fname=tapelev2_2_the_main_loop_taux0
(PID.TID 0000.0001) ADWRITE:  tapeFileCounter =     2
(PID.TID 0000.0001) ADWRITE: tid,vid, irec, length, prec(x2)=    41     3     2      672  8 64 fname=tapelev2_3_the_main_loop_taux1
(PID.TID 0000.0001) ADWRITE:  tapeFileCounter =     3
(PID.TID 0000.0001) ADWRITE: tid,vid, irec, length, prec(x2)=    41     4     2      672  8 64 fname=tapelev2_4_the_main_loop_tauy0
(PID.TID 0000.0001) ADWRITE:  tapeFileCounter =     4
(PID.TID 0000.0001) ADWRITE: tid,vid, irec, length, prec(x2)=    41     5     2      672  8 64 fname=tapelev2_5_the_main_loop_tauy1
(PID.TID 0000.0001) ADWRITE:  tapeFileCounter =     5
(PID.TID 0000.0001) ADWRITE: tid,vid, irec, length, prec(x2)=    41     6     2      672  8 64 fname=tapelev2_6_the_main_loop_qnet0
(PID.TID 0000.0001) ADWRITE:  tapeFileCounter =     6
(PID.TID 0000.0001) ADWRITE: tid,vid, irec, length, prec(x2)=    41     7     2      672  8 64 fname=tapelev2_7_the_main_loop_qnet1
(PID.TID 0000.0001) ADWRITE:  tapeFileCounter =     7
(PID.TID 0000.0001) ADWRITE: tid,vid, irec, length, prec(x2)=    41     8     2      672  8 64 fname=tapelev2_8_the_main_loop_empmr0
(PID.TID 0000.0001) ADWRITE:  tapeFileCounter =     8
(PID.TID 0000.0001) ADWRITE: tid,vid, irec, length, prec(x2)=    41     9     2      672  8 64 fname=tapelev2_9_the_main_loop_empmr1
(PID.TID 0000.0001) ADWRITE:  tapeFileCounter =     9
(PID.TID 0000.0001) ADWRITE: tid,vid, irec, length, prec(x2)=    41    10     2      672  8 64 fname=tapelev2_10_the_main_loop_sst0
(PID.TID 0000.0001) ADWRITE:  tapeFileCounter =    10
(PID.TID 0000.0001) ADWRITE: tid,vid, irec, length, prec(x2)=    41    11     2      672  8 64 fname=tapelev2_11_the_main_loop_sst1
(PID.TID 0000.0001) ADWRITE:  tapeFileCounter =    11
(PID.TID 0000.0001) ADWRITE: tid,vid, irec, length, prec(x2)=    41    12     2      672  8 64 fname=tapelev2_12_the_main_loop_sss0
(PID.TID 0000.0001) ADWRITE:  tapeFileCounter =    12
(PID.TID 0000.0001) ADWRITE: tid,vid, irec, length, prec(x2)=    41    13     2      672  8 64 fname=tapelev2_13_the_main_loop_sss1
(PID.TID 0000.0001) ADWRITE:  tapeFileCounter =    13
(PID.TID 0000.0001) ADWRITE: tid,vid, irec, length, prec(x2)=    41    14     2      672  8 64 fname=tapelev2_14_the_main_loop_saltflux0
(PID.TID 0000.0001) ADWRITE:  tapeFileCounter =    14
(PID.TID 0000.0001) ADWRITE: tid,vid, irec, length, prec(x2)=    41    15     2      672  8 64 fname=tapelev2_15_the_main_loop_saltflux1
(PID.TID 0000.0001) ADWRITE:  tapeFileCounter =    15
(PID.TID 0000.0001) ADWRITE: tid,vid, irec, length, prec(x2)=    41    16     2      672  8 64 fname=tapelev2_16_the_main_loop_qsw0
(PID.TID 0000.0001) ADWRITE:  tapeFileCounter =    16
(PID.TID 0000.0001) ADWRITE: tid,vid, irec, length, prec(x2)=    41    17     2      672  8 64 fname=tapelev2_17_the_main_loop_qsw1
(PID.TID 0000.0001) ADWRITE:  tapeFileCounter =    17
(PID.TID 0000.0001) ADWRITE: tid,vid, irec, length, prec(x2)=    41    18     2      672  8 64 fname=tapelev2_18_the_main_loop_pload0
(PID.TID 0000.0001) ADWRITE:  tapeFileCounter =    18
(PID.TID 0000.0001) ADWRITE: tid,vid, irec, length, prec(x2)=    41    19     2      672  8 64 fname=tapelev2_19_the_main_loop_pload1
(PID.TID 0000.0001) ADWRITE:  tapeFileCounter =    19
(PID.TID 0000.0001) ADWRITE: tid,vid, irec, length, prec(x2)=    41    20     2      672  8 64 fname=tapelev2_20_the_main_loop_etah
(PID.TID 0000.0001) ADWRITE:  tapeFileCounter =    20
(PID.TID 0000.0001) ADWRITE: tid,vid, irec, length, prec(x2)=    41    21     2      672  8 64 fname=tapelev2_21_the_main_loop_detahdt
(PID.TID 0000.0001) ADWRITE:  tapeFileCounter =    21
(PID.TID 0000.0001) ADWRITE: tid,vid, irec, length, prec(x2)=    41    22     2      672  8 64 fname=tapelev2_22_the_main_loop_pmepr
(PID.TID 0000.0001) ADWRITE:  tapeFileCounter =    22
(PID.TID 0000.0001) ADWRITE: tid,vid, irec, length, prec(x2)=    41    23     2    15456  8 64 fname=tapelev2_23_the_main_loop_gtnm1
(PID.TID 0000.0001) ADWRITE:  tapeFileCounter =    23
(PID.TID 0000.0001) ADWRITE:  tapeFileCounter =    24
(PID.TID 0000.0001) ADWRITE:  tapeFileCounter =    25
(PID.TID 0000.0001) ADWRITE:  tapeFileCounter =    26
(PID.TID 0000.0001) ADWRITE:  tapeFileCounter =    27
(PID.TID 0000.0001) ADWRITE:  tapeFileCounter =    28
(PID.TID 0000.0001) ADWRITE:  tapeFileCounter =    29
(PID.TID 0000.0001) ADWRITE:  tapeFileCounter =    30
(PID.TID 0000.0001) ADWRITE:  tapeFileCounter =    31
(PID.TID 0000.0001) ADWRITE:  tapeFileCounter =    32
(PID.TID 0000.0001) ADWRITE:  tapeFileCounter =    33
(PID.TID 0000.0001) ADWRITE:  tapeFileCounter =    34
(PID.TID 0000.0001) ADWRITE:  tapeFileCounter =    35
(PID.TID 0000.0001) ADWRITE:  tapeFileCounter =    36
(PID.TID 0000.0001) ADWRITE:  tapeFileCounter =    37
(PID.TID 0000.0001) ADWRITE:  tapeFileCounter =    38
(PID.TID 0000.0001) ADWRITE:  tapeFileCounter =    39
(PID.TID 0000.0001) ADWRITE:  tapeFileCounter =    40
(PID.TID 0000.0001) ADWRITE:  tapeFileCounter =    41
(PID.TID 0000.0001) ADWRITE:  tapeFileCounter =    42
(PID.TID 0000.0001) ADWRITE:  tapeFileCounter =    43
(PID.TID 0000.0001) ADWRITE:  tapeFileCounter =    44
(PID.TID 0000.0001) ADWRITE:  tapeFileCounter =    45
(PID.TID 0000.0001) ADWRITE: tid,vid, irec, length, prec(x2)=    41    24     2    15456  8 64 fname=tapelev2_24_the_main_loop_gsnm1
(PID.TID 0000.0001) ADWRITE:  tapeFileCounter =    46
(PID.TID 0000.0001) ADWRITE:  tapeFileCounter =    47
(PID.TID 0000.0001) ADWRITE:  tapeFileCounter =    48
(PID.TID 0000.0001) ADWRITE:  tapeFileCounter =    49
(PID.TID 0000.0001) ADWRITE:  tapeFileCounter =    50
(PID.TID 0000.0001) ADWRITE:  tapeFileCounter =    51
(PID.TID 0000.0001) ADWRITE:  tapeFileCounter =    52
(PID.TID 0000.0001) ADWRITE:  tapeFileCounter =    53
(PID.TID 0000.0001) ADWRITE:  tapeFileCounter =    54
(PID.TID 0000.0001) ADWRITE:  tapeFileCounter =    55
(PID.TID 0000.0001) ADWRITE:  tapeFileCounter =    56
(PID.TID 0000.0001) ADWRITE:  tapeFileCounter =    57
(PID.TID 0000.0001) ADWRITE:  tapeFileCounter =    58
(PID.TID 0000.0001) ADWRITE:  tapeFileCounter =    59
(PID.TID 0000.0001) ADWRITE:  tapeFileCounter =    60
(PID.TID 0000.0001) ADWRITE:  tapeFileCounter =    61
(PID.TID 0000.0001) ADWRITE:  tapeFileCounter =    62
(PID.TID 0000.0001) ADWRITE:  tapeFileCounter =    63
(PID.TID 0000.0001) ADWRITE:  tapeFileCounter =    64
(PID.TID 0000.0001) ADWRITE:  tapeFileCounter =    65
(PID.TID 0000.0001) ADWRITE:  tapeFileCounter =    66
(PID.TID 0000.0001) ADWRITE:  tapeFileCounter =    67
(PID.TID 0000.0001) ADWRITE:  tapeFileCounter =    68
(PID.TID 0000.0001) ADWRITE: tid,vid, irec, length, prec(x2)=    41    25     2    15456  8 64 fname=tapelev2_25_the_main_loop_gunm1
(PID.TID 0000.0001) ADWRITE:  tapeFileCounter =    69
(PID.TID 0000.0001) ADWRITE:  tapeFileCounter =    70
(PID.TID 0000.0001) ADWRITE:  tapeFileCounter =    71
(PID.TID 0000.0001) ADWRITE:  tapeFileCounter =    72
(PID.TID 0000.0001) ADWRITE:  tapeFileCounter =    73
(PID.TID 0000.0001) ADWRITE:  tapeFileCounter =    74
(PID.TID 0000.0001) ADWRITE:  tapeFileCounter =    75
(PID.TID 0000.0001) ADWRITE:  tapeFileCounter =    76
(PID.TID 0000.0001) ADWRITE:  tapeFileCounter =    77
(PID.TID 0000.0001) ADWRITE:  tapeFileCounter =    78
(PID.TID 0000.0001) ADWRITE:  tapeFileCounter =    79
(PID.TID 0000.0001) ADWRITE:  tapeFileCounter =    80
(PID.TID 0000.0001) ADWRITE:  tapeFileCounter =    81
(PID.TID 0000.0001) ADWRITE:  tapeFileCounter =    82
(PID.TID 0000.0001) ADWRITE:  tapeFileCounter =    83
(PID.TID 0000.0001) ADWRITE:  tapeFileCounter =    84
(PID.TID 0000.0001) ADWRITE:  tapeFileCounter =    85
(PID.TID 0000.0001) ADWRITE:  tapeFileCounter =    86
(PID.TID 0000.0001) ADWRITE:  tapeFileCounter =    87
(PID.TID 0000.0001) ADWRITE:  tapeFileCounter =    88
(PID.TID 0000.0001) ADWRITE:  tapeFileCounter =    89
(PID.TID 0000.0001) ADWRITE:  tapeFileCounter =    90
(PID.TID 0000.0001) ADWRITE:  tapeFileCounter =    91
(PID.TID 0000.0001) ADWRITE: tid,vid, irec, length, prec(x2)=    41    26     2    15456  8 64 fname=tapelev2_26_the_main_loop_gvnm1
(PID.TID 0000.0001) ADWRITE:  tapeFileCounter =    92
(PID.TID 0000.0001) ADWRITE:  tapeFileCounter =    93
(PID.TID 0000.0001) ADWRITE:  tapeFileCounter =    94
(PID.TID 0000.0001) ADWRITE:  tapeFileCounter =    95
(PID.TID 0000.0001) ADWRITE:  tapeFileCounter =    96
(PID.TID 0000.0001) ADWRITE:  tapeFileCounter =    97
(PID.TID 0000.0001) ADWRITE:  tapeFileCounter =    98
(PID.TID 0000.0001) ADWRITE:  tapeFileCounter =    99
(PID.TID 0000.0001) ADWRITE:  tapeFileCounter =   100
(PID.TID 0000.0001) ADWRITE:  tapeFileCounter =   101
(PID.TID 0000.0001) ADWRITE:  tapeFileCounter =   102
(PID.TID 0000.0001) ADWRITE:  tapeFileCounter =   103
(PID.TID 0000.0001) ADWRITE:  tapeFileCounter =   104
(PID.TID 0000.0001) ADWRITE:  tapeFileCounter =   105
(PID.TID 0000.0001) ADWRITE:  tapeFileCounter =   106
(PID.TID 0000.0001) ADWRITE:  tapeFileCounter =   107
(PID.TID 0000.0001) ADWRITE:  tapeFileCounter =   108
(PID.TID 0000.0001) ADWRITE:  tapeFileCounter =   109
(PID.TID 0000.0001) ADWRITE:  tapeFileCounter =   110
(PID.TID 0000.0001) ADWRITE:  tapeFileCounter =   111
(PID.TID 0000.0001) ADWRITE:  tapeFileCounter =   112
(PID.TID 0000.0001) ADWRITE:  tapeFileCounter =   113
(PID.TID 0000.0001) ADWRITE:  tapeFileCounter =   114
(PID.TID 0000.0001) ADWRITE: tid,vid, irec, length, prec(x2)=    41    27     2    15456  8 64 fname=tapelev2_27_the_main_loop_theta
(PID.TID 0000.0001) ADWRITE:  tapeFileCounter =   115
(PID.TID 0000.0001) ADWRITE:  tapeFileCounter =   116
(PID.TID 0000.0001) ADWRITE:  tapeFileCounter =   117
(PID.TID 0000.0001) ADWRITE:  tapeFileCounter =   118
(PID.TID 0000.0001) ADWRITE:  tapeFileCounter =   119
(PID.TID 0000.0001) ADWRITE:  tapeFileCounter =   120
(PID.TID 0000.0001) ADWRITE:  tapeFileCounter =   121
(PID.TID 0000.0001) ADWRITE:  tapeFileCounter =   122
(PID.TID 0000.0001) ADWRITE:  tapeFileCounter =   123
(PID.TID 0000.0001) ADWRITE:  tapeFileCounter =   124
(PID.TID 0000.0001) ADWRITE:  tapeFileCounter =   125
(PID.TID 0000.0001) ADWRITE:  tapeFileCounter =   126
(PID.TID 0000.0001) ADWRITE:  tapeFileCounter =   127
(PID.TID 0000.0001) ADWRITE:  tapeFileCounter =   128
(PID.TID 0000.0001) ADWRITE:  tapeFileCounter =   129
(PID.TID 0000.0001) ADWRITE:  tapeFileCounter =   130
(PID.TID 0000.0001) ADWRITE:  tapeFileCounter =   131
(PID.TID 0000.0001) ADWRITE:  tapeFileCounter =   132
(PID.TID 0000.0001) ADWRITE:  tapeFileCounter =   133
(PID.TID 0000.0001) ADWRITE:  tapeFileCounter =   134
(PID.TID 0000.0001) ADWRITE:  tapeFileCounter =   135
(PID.TID 0000.0001) ADWRITE:  tapeFileCounter =   136
(PID.TID 0000.0001) ADWRITE:  tapeFileCounter =   137
(PID.TID 0000.0001) ADWRITE: tid,vid, irec, length, prec(x2)=    41    28     2    15456  8 64 fname=tapelev2_28_the_main_loop_salt
(PID.TID 0000.0001) ADWRITE:  tapeFileCounter =   138
(PID.TID 0000.0001) ADWRITE:  tapeFileCounter =   139
(PID.TID 0000.0001) ADWRITE:  tapeFileCounter =   140
(PID.TID 0000.0001) ADWRITE:  tapeFileCounter =   141
(PID.TID 0000.0001) ADWRITE:  tapeFileCounter =   142
(PID.TID 0000.0001) ADWRITE:  tapeFileCounter =   143
(PID.TID 0000.0001) ADWRITE:  tapeFileCounter =   144
(PID.TID 0000.0001) ADWRITE:  tapeFileCounter =   145
(PID.TID 0000.0001) ADWRITE:  tapeFileCounter =   146
(PID.TID 0000.0001) ADWRITE:  tapeFileCounter =   147
(PID.TID 0000.0001) ADWRITE:  tapeFileCounter =   148
(PID.TID 0000.0001) ADWRITE:  tapeFileCounter =   149
(PID.TID 0000.0001) ADWRITE:  tapeFileCounter =   150
(PID.TID 0000.0001) ADWRITE:  tapeFileCounter =   151
(PID.TID 0000.0001) ADWRITE:  tapeFileCounter =   152
(PID.TID 0000.0001) ADWRITE:  tapeFileCounter =   153
(PID.TID 0000.0001) ADWRITE:  tapeFileCounter =   154
(PID.TID 0000.0001) ADWRITE:  tapeFileCounter =   155
(PID.TID 0000.0001) ADWRITE:  tapeFileCounter =   156
(PID.TID 0000.0001) ADWRITE:  tapeFileCounter =   157
(PID.TID 0000.0001) ADWRITE:  tapeFileCounter =   158
(PID.TID 0000.0001) ADWRITE:  tapeFileCounter =   159
(PID.TID 0000.0001) ADWRITE:  tapeFileCounter =   160
(PID.TID 0000.0001) ADWRITE: tid,vid, irec, length, prec(x2)=    41    29     2    15456  8 64 fname=tapelev2_29_the_main_loop_uvel
(PID.TID 0000.0001) ADWRITE:  tapeFileCounter =   161
(PID.TID 0000.0001) ADWRITE:  tapeFileCounter =   162
(PID.TID 0000.0001) ADWRITE:  tapeFileCounter =   163
(PID.TID 0000.0001) ADWRITE:  tapeFileCounter =   164
(PID.TID 0000.0001) ADWRITE:  tapeFileCounter =   165
(PID.TID 0000.0001) ADWRITE:  tapeFileCounter =   166
(PID.TID 0000.0001) ADWRITE:  tapeFileCounter =   167
(PID.TID 0000.0001) ADWRITE:  tapeFileCounter =   168
(PID.TID 0000.0001) ADWRITE:  tapeFileCounter =   169
(PID.TID 0000.0001) ADWRITE:  tapeFileCounter =   170
(PID.TID 0000.0001) ADWRITE:  tapeFileCounter =   171
(PID.TID 0000.0001) ADWRITE:  tapeFileCounter =   172
(PID.TID 0000.0001) ADWRITE:  tapeFileCounter =   173
(PID.TID 0000.0001) ADWRITE:  tapeFileCounter =   174
(PID.TID 0000.0001) ADWRITE:  tapeFileCounter =   175
(PID.TID 0000.0001) ADWRITE:  tapeFileCounter =   176
(PID.TID 0000.0001) ADWRITE:  tapeFileCounter =   177
(PID.TID 0000.0001) ADWRITE:  tapeFileCounter =   178
(PID.TID 0000.0001) ADWRITE:  tapeFileCounter =   179
(PID.TID 0000.0001) ADWRITE:  tapeFileCounter =   180
(PID.TID 0000.0001) ADWRITE:  tapeFileCounter =   181
(PID.TID 0000.0001) ADWRITE:  tapeFileCounter =   182
(PID.TID 0000.0001) ADWRITE:  tapeFileCounter =   183
(PID.TID 0000.0001) ADWRITE: tid,vid, irec, length, prec(x2)=    41    30     2    15456  8 64 fname=tapelev2_30_the_main_loop_vvel
(PID.TID 0000.0001) ADWRITE:  tapeFileCounter =   184
(PID.TID 0000.0001) ADWRITE:  tapeFileCounter =   185
(PID.TID 0000.0001) ADWRITE:  tapeFileCounter =   186
(PID.TID 0000.0001) ADWRITE:  tapeFileCounter =   187
(PID.TID 0000.0001) ADWRITE:  tapeFileCounter =   188
(PID.TID 0000.0001) ADWRITE:  tapeFileCounter =   189
(PID.TID 0000.0001) ADWRITE:  tapeFileCounter =   190
(PID.TID 0000.0001) ADWRITE:  tapeFileCounter =   191
(PID.TID 0000.0001) ADWRITE:  tapeFileCounter =   192
(PID.TID 0000.0001) ADWRITE:  tapeFileCounter =   193
(PID.TID 0000.0001) ADWRITE:  tapeFileCounter =   194
(PID.TID 0000.0001) ADWRITE:  tapeFileCounter =   195
(PID.TID 0000.0001) ADWRITE:  tapeFileCounter =   196
(PID.TID 0000.0001) ADWRITE:  tapeFileCounter =   197
(PID.TID 0000.0001) ADWRITE:  tapeFileCounter =   198
(PID.TID 0000.0001) ADWRITE:  tapeFileCounter =   199
(PID.TID 0000.0001) ADWRITE:  tapeFileCounter =   200
(PID.TID 0000.0001) ADWRITE:  tapeFileCounter =   201
(PID.TID 0000.0001) ADWRITE:  tapeFileCounter =   202
(PID.TID 0000.0001) ADWRITE:  tapeFileCounter =   203
(PID.TID 0000.0001) ADWRITE:  tapeFileCounter =   204
(PID.TID 0000.0001) ADWRITE:  tapeFileCounter =   205
(PID.TID 0000.0001) ADWRITE:  tapeFileCounter =   206
(PID.TID 0000.0001) ADWRITE: tid,vid, irec, length, prec(x2)=    41    31     2    15456  8 64 fname=tapelev2_31_the_main_loop_wvel
(PID.TID 0000.0001) ADWRITE:  tapeFileCounter =   207
(PID.TID 0000.0001) ADWRITE:  tapeFileCounter =   208
(PID.TID 0000.0001) ADWRITE:  tapeFileCounter =   209
(PID.TID 0000.0001) ADWRITE:  tapeFileCounter =   210
(PID.TID 0000.0001) ADWRITE:  tapeFileCounter =   211
(PID.TID 0000.0001) ADWRITE:  tapeFileCounter =   212
(PID.TID 0000.0001) ADWRITE:  tapeFileCounter =   213
(PID.TID 0000.0001) ADWRITE:  tapeFileCounter =   214
(PID.TID 0000.0001) ADWRITE:  tapeFileCounter =   215
(PID.TID 0000.0001) ADWRITE:  tapeFileCounter =   216
(PID.TID 0000.0001) ADWRITE:  tapeFileCounter =   217
(PID.TID 0000.0001) ADWRITE:  tapeFileCounter =   218
(PID.TID 0000.0001) ADWRITE:  tapeFileCounter =   219
(PID.TID 0000.0001) ADWRITE:  tapeFileCounter =   220
(PID.TID 0000.0001) ADWRITE:  tapeFileCounter =   221
(PID.TID 0000.0001) ADWRITE:  tapeFileCounter =   222
(PID.TID 0000.0001) ADWRITE:  tapeFileCounter =   223
(PID.TID 0000.0001) ADWRITE:  tapeFileCounter =   224
(PID.TID 0000.0001) ADWRITE:  tapeFileCounter =   225
(PID.TID 0000.0001) ADWRITE:  tapeFileCounter =   226
(PID.TID 0000.0001) ADWRITE:  tapeFileCounter =   227
(PID.TID 0000.0001) ADWRITE:  tapeFileCounter =   228
(PID.TID 0000.0001) ADWRITE:  tapeFileCounter =   229
(PID.TID 0000.0001) ADWRITE: tid,vid, irec, length, prec(x2)=    41    32     2    15456  8 64 fname=tapelev2_32_the_main_loop_totphihyd
(PID.TID 0000.0001) ADWRITE:  tapeFileCounter =   230
(PID.TID 0000.0001) ADWRITE:  tapeFileCounter =   231
(PID.TID 0000.0001) ADWRITE:  tapeFileCounter =   232
(PID.TID 0000.0001) ADWRITE:  tapeFileCounter =   233
(PID.TID 0000.0001) ADWRITE:  tapeFileCounter =   234
(PID.TID 0000.0001) ADWRITE:  tapeFileCounter =   235
(PID.TID 0000.0001) ADWRITE:  tapeFileCounter =   236
(PID.TID 0000.0001) ADWRITE:  tapeFileCounter =   237
(PID.TID 0000.0001) ADWRITE:  tapeFileCounter =   238
(PID.TID 0000.0001) ADWRITE:  tapeFileCounter =   239
(PID.TID 0000.0001) ADWRITE:  tapeFileCounter =   240
(PID.TID 0000.0001) ADWRITE:  tapeFileCounter =   241
(PID.TID 0000.0001) ADWRITE:  tapeFileCounter =   242
(PID.TID 0000.0001) ADWRITE:  tapeFileCounter =   243
(PID.TID 0000.0001) ADWRITE:  tapeFileCounter =   244
(PID.TID 0000.0001) ADWRITE:  tapeFileCounter =   245
(PID.TID 0000.0001) ADWRITE:  tapeFileCounter =   246
(PID.TID 0000.0001) ADWRITE:  tapeFileCounter =   247
(PID.TID 0000.0001) ADWRITE:  tapeFileCounter =   248
(PID.TID 0000.0001) ADWRITE:  tapeFileCounter =   249
(PID.TID 0000.0001) ADWRITE:  tapeFileCounter =   250
(PID.TID 0000.0001) ADWRITE:  tapeFileCounter =   251
(PID.TID 0000.0001) ADWRITE:  tapeFileCounter =   252
(PID.TID 0000.0001) ADWRITE: tid,vid, irec, length, prec(x2)=    41    35     2    15456  8 64 fname=tapelev2_35_the_main_loop_uveld
(PID.TID 0000.0001) ADWRITE:  tapeFileCounter =   253
(PID.TID 0000.0001) ADWRITE:  tapeFileCounter =   254
(PID.TID 0000.0001) ADWRITE:  tapeFileCounter =   255
(PID.TID 0000.0001) ADWRITE:  tapeFileCounter =   256
(PID.TID 0000.0001) ADWRITE:  tapeFileCounter =   257
(PID.TID 0000.0001) ADWRITE:  tapeFileCounter =   258
(PID.TID 0000.0001) ADWRITE:  tapeFileCounter =   259
(PID.TID 0000.0001) ADWRITE:  tapeFileCounter =   260
(PID.TID 0000.0001) ADWRITE:  tapeFileCounter =   261
(PID.TID 0000.0001) ADWRITE:  tapeFileCounter =   262
(PID.TID 0000.0001) ADWRITE:  tapeFileCounter =   263
(PID.TID 0000.0001) ADWRITE:  tapeFileCounter =   264
(PID.TID 0000.0001) ADWRITE:  tapeFileCounter =   265
(PID.TID 0000.0001) ADWRITE:  tapeFileCounter =   266
(PID.TID 0000.0001) ADWRITE:  tapeFileCounter =   267
(PID.TID 0000.0001) ADWRITE:  tapeFileCounter =   268
(PID.TID 0000.0001) ADWRITE:  tapeFileCounter =   269
(PID.TID 0000.0001) ADWRITE:  tapeFileCounter =   270
(PID.TID 0000.0001) ADWRITE:  tapeFileCounter =   271
(PID.TID 0000.0001) ADWRITE:  tapeFileCounter =   272
(PID.TID 0000.0001) ADWRITE:  tapeFileCounter =   273
(PID.TID 0000.0001) ADWRITE:  tapeFileCounter =   274
(PID.TID 0000.0001) ADWRITE:  tapeFileCounter =   275
(PID.TID 0000.0001) ADWRITE: tid,vid, irec, length, prec(x2)=    41    36     2    15456  8 64 fname=tapelev2_36_the_main_loop_vveld
(PID.TID 0000.0001) ADWRITE:  tapeFileCounter =   276
(PID.TID 0000.0001) ADWRITE:  tapeFileCounter =   277
(PID.TID 0000.0001) ADWRITE:  tapeFileCounter =   278
(PID.TID 0000.0001) ADWRITE:  tapeFileCounter =   279
(PID.TID 0000.0001) ADWRITE:  tapeFileCounter =   280
(PID.TID 0000.0001) ADWRITE:  tapeFileCounter =   281
(PID.TID 0000.0001) ADWRITE:  tapeFileCounter =   282
(PID.TID 0000.0001) ADWRITE:  tapeFileCounter =   283
(PID.TID 0000.0001) ADWRITE:  tapeFileCounter =   284
(PID.TID 0000.0001) ADWRITE:  tapeFileCounter =   285
(PID.TID 0000.0001) ADWRITE:  tapeFileCounter =   286
(PID.TID 0000.0001) ADWRITE:  tapeFileCounter =   287
(PID.TID 0000.0001) ADWRITE:  tapeFileCounter =   288
(PID.TID 0000.0001) ADWRITE:  tapeFileCounter =   289
(PID.TID 0000.0001) ADWRITE:  tapeFileCounter =   290
(PID.TID 0000.0001) ADWRITE:  tapeFileCounter =   291
(PID.TID 0000.0001) ADWRITE:  tapeFileCounter =   292
(PID.TID 0000.0001) ADWRITE:  tapeFileCounter =   293
(PID.TID 0000.0001) ADWRITE:  tapeFileCounter =   294
(PID.TID 0000.0001) ADWRITE:  tapeFileCounter =   295
(PID.TID 0000.0001) ADWRITE:  tapeFileCounter =   296
(PID.TID 0000.0001) ADWRITE:  tapeFileCounter =   297
(PID.TID 0000.0001) ADWRITE:  tapeFileCounter =   298
(PID.TID 0000.0001) ADWRITE: tid,vid, irec, length, prec(x2)=    41    37     2      672  8 64 fname=tapelev2_37_the_main_loop_etanm1
(PID.TID 0000.0001) ADWRITE:  tapeFileCounter =   299
(PID.TID 0000.0001) ADWRITE: tid,vid, irec, length, prec(x2)=    41    38     2    15456  8 64 fname=tapelev2_38_the_main_loop_unm1
(PID.TID 0000.0001) ADWRITE:  tapeFileCounter =   300
(PID.TID 0000.0001) ADWRITE:  tapeFileCounter =   301
(PID.TID 0000.0001) ADWRITE:  tapeFileCounter =   302
(PID.TID 0000.0001) ADWRITE:  tapeFileCounter =   303
(PID.TID 0000.0001) ADWRITE:  tapeFileCounter =   304
(PID.TID 0000.0001) ADWRITE:  tapeFileCounter =   305
(PID.TID 0000.0001) ADWRITE:  tapeFileCounter =   306
(PID.TID 0000.0001) ADWRITE:  tapeFileCounter =   307
(PID.TID 0000.0001) ADWRITE:  tapeFileCounter =   308
(PID.TID 0000.0001) ADWRITE:  tapeFileCounter =   309
(PID.TID 0000.0001) ADWRITE:  tapeFileCounter =   310
(PID.TID 0000.0001) ADWRITE:  tapeFileCounter =   311
(PID.TID 0000.0001) ADWRITE:  tapeFileCounter =   312
(PID.TID 0000.0001) ADWRITE:  tapeFileCounter =   313
(PID.TID 0000.0001) ADWRITE:  tapeFileCounter =   314
(PID.TID 0000.0001) ADWRITE:  tapeFileCounter =   315
(PID.TID 0000.0001) ADWRITE:  tapeFileCounter =   316
(PID.TID 0000.0001) ADWRITE:  tapeFileCounter =   317
(PID.TID 0000.0001) ADWRITE:  tapeFileCounter =   318
(PID.TID 0000.0001) ADWRITE:  tapeFileCounter =   319
(PID.TID 0000.0001) ADWRITE:  tapeFileCounter =   320
(PID.TID 0000.0001) ADWRITE:  tapeFileCounter =   321
(PID.TID 0000.0001) ADWRITE:  tapeFileCounter =   322
(PID.TID 0000.0001) ADWRITE: tid,vid, irec, length, prec(x2)=    41    39     2    15456  8 64 fname=tapelev2_39_the_main_loop_vnm1
(PID.TID 0000.0001) ADWRITE:  tapeFileCounter =   323
(PID.TID 0000.0001) ADWRITE:  tapeFileCounter =   324
(PID.TID 0000.0001) ADWRITE:  tapeFileCounter =   325
(PID.TID 0000.0001) ADWRITE:  tapeFileCounter =   326
(PID.TID 0000.0001) ADWRITE:  tapeFileCounter =   327
(PID.TID 0000.0001) ADWRITE:  tapeFileCounter =   328
(PID.TID 0000.0001) ADWRITE:  tapeFileCounter =   329
(PID.TID 0000.0001) ADWRITE:  tapeFileCounter =   330
(PID.TID 0000.0001) ADWRITE:  tapeFileCounter =   331
(PID.TID 0000.0001) ADWRITE:  tapeFileCounter =   332
(PID.TID 0000.0001) ADWRITE:  tapeFileCounter =   333
(PID.TID 0000.0001) ADWRITE:  tapeFileCounter =   334
(PID.TID 0000.0001) ADWRITE:  tapeFileCounter =   335
(PID.TID 0000.0001) ADWRITE:  tapeFileCounter =   336
(PID.TID 0000.0001) ADWRITE:  tapeFileCounter =   337
(PID.TID 0000.0001) ADWRITE:  tapeFileCounter =   338
(PID.TID 0000.0001) ADWRITE:  tapeFileCounter =   339
(PID.TID 0000.0001) ADWRITE:  tapeFileCounter =   340
(PID.TID 0000.0001) ADWRITE:  tapeFileCounter =   341
(PID.TID 0000.0001) ADWRITE:  tapeFileCounter =   342
(PID.TID 0000.0001) ADWRITE:  tapeFileCounter =   343
(PID.TID 0000.0001) ADWRITE:  tapeFileCounter =   344
(PID.TID 0000.0001) ADWRITE:  tapeFileCounter =   345
(PID.TID 0000.0001) ADWRITE: tid,vid, irec, length, prec(x2)=    41    40     2      672  8 64 fname=tapelev2_40_the_main_loop_areamask0
(PID.TID 0000.0001) ADWRITE:  tapeFileCounter =   346
(PID.TID 0000.0001) ADWRITE: tid,vid, irec, length, prec(x2)=    41    41     2      672  8 64 fname=tapelev2_41_the_main_loop_areamask1
(PID.TID 0000.0001) ADWRITE:  tapeFileCounter =   347
(PID.TID 0000.0001) ADWRITE: tid,vid, irec, length, prec(x2)=    41    42     2      672  8 64 fname=tapelev2_42_the_main_loop_hflux0
(PID.TID 0000.0001) ADWRITE:  tapeFileCounter =   348
(PID.TID 0000.0001) ADWRITE: tid,vid, irec, length, prec(x2)=    41    43     2      672  8 64 fname=tapelev2_43_the_main_loop_hflux1
(PID.TID 0000.0001) ADWRITE:  tapeFileCounter =   349
(PID.TID 0000.0001) ADWRITE: tid,vid, irec, length, prec(x2)=    41    44     2      672  8 64 fname=tapelev2_44_the_main_loop_sflux0
(PID.TID 0000.0001) ADWRITE:  tapeFileCounter =   350
(PID.TID 0000.0001) ADWRITE: tid,vid, irec, length, prec(x2)=    41    45     2      672  8 64 fname=tapelev2_45_the_main_loop_sflux1
(PID.TID 0000.0001) ADWRITE:  tapeFileCounter =   351
(PID.TID 0000.0001) ADWRITE: tid,vid, irec, length, prec(x2)=    41    46     2      672  8 64 fname=tapelev2_46_the_main_loop_ustress0
(PID.TID 0000.0001) ADWRITE:  tapeFileCounter =   352
(PID.TID 0000.0001) ADWRITE: tid,vid, irec, length, prec(x2)=    41    47     2      672  8 64 fname=tapelev2_47_the_main_loop_ustress1
(PID.TID 0000.0001) ADWRITE:  tapeFileCounter =   353
(PID.TID 0000.0001) ADWRITE: tid,vid, irec, length, prec(x2)=    41    48     2      672  8 64 fname=tapelev2_48_the_main_loop_vstress0
(PID.TID 0000.0001) ADWRITE:  tapeFileCounter =   354
(PID.TID 0000.0001) ADWRITE: tid,vid, irec, length, prec(x2)=    41    49     2      672  8 64 fname=tapelev2_49_the_main_loop_vstress1
(PID.TID 0000.0001) ADWRITE:  tapeFileCounter =   355
(PID.TID 0000.0001) ADWRITE: tid,vid, irec, length, prec(x2)=    41    50     2      672  8 64 fname=tapelev2_50_the_main_loop_wspeed0
(PID.TID 0000.0001) ADWRITE:  tapeFileCounter =   356
(PID.TID 0000.0001) ADWRITE: tid,vid, irec, length, prec(x2)=    41    51     2      672  8 64 fname=tapelev2_51_the_main_loop_wspeed1
(PID.TID 0000.0001) ADWRITE:  tapeFileCounter =   357
(PID.TID 0000.0001) ADWRITE: tid,vid, irec, length, prec(x2)=    41    54     2      672  8 64 fname=tapelev2_54_the_main_loop_runoff0
(PID.TID 0000.0001) ADWRITE:  tapeFileCounter =   358
(PID.TID 0000.0001) ADWRITE: tid,vid, irec, length, prec(x2)=    41    55     2      672  8 64 fname=tapelev2_55_the_main_loop_runoff1
(PID.TID 0000.0001) ADWRITE:  tapeFileCounter =   359
(PID.TID 0000.0001) ADWRITE: tid,vid, irec, length, prec(x2)=    41    56     2      672  8 64 fname=tapelev2_56_the_main_loop_apressure0
(PID.TID 0000.0001) ADWRITE:  tapeFileCounter =   360
(PID.TID 0000.0001) ADWRITE: tid,vid, irec, length, prec(x2)=    41    57     2      672  8 64 fname=tapelev2_57_the_main_loop_apressure1
(PID.TID 0000.0001) ADWRITE:  tapeFileCounter =   361
(PID.TID 0000.0001) ADWRITE: tid,vid, irec, length, prec(x2)=    41    58     2      672  8 64 fname=tapelev2_58_the_main_loop_siceload
(PID.TID 0000.0001) ADWRITE:  tapeFileCounter =   362
(PID.TID 0000.0001) ADWRITE: tid,vid, irec, length, prec(x2)=    41    59     2      672  8 64 fname=tapelev2_59_the_main_loop_climsss0
(PID.TID 0000.0001) ADWRITE:  tapeFileCounter =   363
(PID.TID 0000.0001) ADWRITE: tid,vid, irec, length, prec(x2)=    41    60     2      672  8 64 fname=tapelev2_60_the_main_loop_climsss1
(PID.TID 0000.0001) ADWRITE:  tapeFileCounter =   364
(PID.TID 0000.0001) ADWRITE: tid,vid, irec, length, prec(x2)=    41    61     2      672  8 64 fname=tapelev2_61_the_main_loop_climsst0
(PID.TID 0000.0001) ADWRITE:  tapeFileCounter =   365
(PID.TID 0000.0001) ADWRITE: tid,vid, irec, length, prec(x2)=    41    62     2      672  8 64 fname=tapelev2_62_the_main_loop_climsst1
(PID.TID 0000.0001) ADWRITE:  tapeFileCounter =   366
(PID.TID 0000.0001) ADWRITE: tid,vid, irec, length, prec(x2)=    41    63     2      672  8 64 fname=tapelev2_63_the_main_loop_saltflx0
(PID.TID 0000.0001) ADWRITE:  tapeFileCounter =   367
(PID.TID 0000.0001) ADWRITE: tid,vid, irec, length, prec(x2)=    41    64     2      672  8 64 fname=tapelev2_64_the_main_loop_saltflx1
(PID.TID 0000.0001) ADWRITE:  tapeFileCounter =   368
(PID.TID 0000.0001) ADWRITE: tid,vid, irec, length, prec(x2)=    41    65     2      672  8 64 fname=tapelev2_65_the_main_loop_aqh0
(PID.TID 0000.0001) ADWRITE:  tapeFileCounter =   369
(PID.TID 0000.0001) ADWRITE: tid,vid, irec, length, prec(x2)=    41    66     2      672  8 64 fname=tapelev2_66_the_main_loop_aqh1
(PID.TID 0000.0001) ADWRITE:  tapeFileCounter =   370
(PID.TID 0000.0001) ADWRITE: tid,vid, irec, length, prec(x2)=    41    67     2      672  8 64 fname=tapelev2_67_the_main_loop_atemp0
(PID.TID 0000.0001) ADWRITE:  tapeFileCounter =   371
(PID.TID 0000.0001) ADWRITE: tid,vid, irec, length, prec(x2)=    41    68     2      672  8 64 fname=tapelev2_68_the_main_loop_atemp1
(PID.TID 0000.0001) ADWRITE:  tapeFileCounter =   372
(PID.TID 0000.0001) ADWRITE: tid,vid, irec, length, prec(x2)=    41    69     2      672  8 64 fname=tapelev2_69_the_main_loop_precip0
(PID.TID 0000.0001) ADWRITE:  tapeFileCounter =   373
(PID.TID 0000.0001) ADWRITE: tid,vid, irec, length, prec(x2)=    41    70     2      672  8 64 fname=tapelev2_70_the_main_loop_precip1
(PID.TID 0000.0001) ADWRITE:  tapeFileCounter =   374
(PID.TID 0000.0001) ADWRITE: tid,vid, irec, length, prec(x2)=    41    73     2      672  8 64 fname=tapelev2_73_the_main_loop_snowprecip0
(PID.TID 0000.0001) ADWRITE:  tapeFileCounter =   375
(PID.TID 0000.0001) ADWRITE: tid,vid, irec, length, prec(x2)=    41    74     2      672  8 64 fname=tapelev2_74_the_main_loop_snowprecip1
(PID.TID 0000.0001) ADWRITE:  tapeFileCounter =   376
(PID.TID 0000.0001) ADWRITE: tid,vid, irec, length, prec(x2)=    41    75     2      672  8 64 fname=tapelev2_75_the_main_loop_swdown0
(PID.TID 0000.0001) ADWRITE:  tapeFileCounter =   377
(PID.TID 0000.0001) ADWRITE: tid,vid, irec, length, prec(x2)=    41    76     2      672  8 64 fname=tapelev2_76_the_main_loop_swdown1
(PID.TID 0000.0001) ADWRITE:  tapeFileCounter =   378
(PID.TID 0000.0001) ADWRITE: tid,vid, irec, length, prec(x2)=    41    77     2      672  8 64 fname=tapelev2_77_the_main_loop_lwdown0
(PID.TID 0000.0001) ADWRITE:  tapeFileCounter =   379
(PID.TID 0000.0001) ADWRITE: tid,vid, irec, length, prec(x2)=    41    78     2      672  8 64 fname=tapelev2_78_the_main_loop_lwdown1
(PID.TID 0000.0001) ADWRITE:  tapeFileCounter =   380
(PID.TID 0000.0001) ADWRITE: tid,vid, irec, length, prec(x2)=    41    79     2      672  8 64 fname=tapelev2_79_the_main_loop_uwind0
(PID.TID 0000.0001) ADWRITE:  tapeFileCounter =   381
(PID.TID 0000.0001) ADWRITE: tid,vid, irec, length, prec(x2)=    41    80     2      672  8 64 fname=tapelev2_80_the_main_loop_uwind1
(PID.TID 0000.0001) ADWRITE:  tapeFileCounter =   382
(PID.TID 0000.0001) ADWRITE: tid,vid, irec, length, prec(x2)=    41    81     2      672  8 64 fname=tapelev2_81_the_main_loop_vwind0
(PID.TID 0000.0001) ADWRITE:  tapeFileCounter =   383
(PID.TID 0000.0001) ADWRITE: tid,vid, irec, length, prec(x2)=    41    82     2      672  8 64 fname=tapelev2_82_the_main_loop_vwind1
(PID.TID 0000.0001) ADWRITE:  tapeFileCounter =   384
(PID.TID 0000.0001) ADWRITE: tid,vid, irec, length, prec(x2)=    41    83     2     6048  8 64 fname=tapelev2_83_the_main_loop_xx_gentim2d
(PID.TID 0000.0001) ADWRITE:  tapeFileCounter =   385
(PID.TID 0000.0001) ADWRITE:  tapeFileCounter =   386
(PID.TID 0000.0001) ADWRITE:  tapeFileCounter =   387
(PID.TID 0000.0001) ADWRITE:  tapeFileCounter =   388
(PID.TID 0000.0001) ADWRITE:  tapeFileCounter =   389
(PID.TID 0000.0001) ADWRITE:  tapeFileCounter =   390
(PID.TID 0000.0001) ADWRITE:  tapeFileCounter =   391
(PID.TID 0000.0001) ADWRITE:  tapeFileCounter =   392
(PID.TID 0000.0001) ADWRITE:  tapeFileCounter =   393
(PID.TID 0000.0001) ADWRITE: tid,vid, irec, length, prec(x2)=    41    84     2     6048  8 64 fname=tapelev2_84_the_main_loop_xx_gentim2d0
(PID.TID 0000.0001) ADWRITE:  tapeFileCounter =   394
(PID.TID 0000.0001) ADWRITE:  tapeFileCounter =   395
(PID.TID 0000.0001) ADWRITE:  tapeFileCounter =   396
(PID.TID 0000.0001) ADWRITE:  tapeFileCounter =   397
(PID.TID 0000.0001) ADWRITE:  tapeFileCounter =   398
(PID.TID 0000.0001) ADWRITE:  tapeFileCounter =   399
(PID.TID 0000.0001) ADWRITE:  tapeFileCounter =   400
(PID.TID 0000.0001) ADWRITE:  tapeFileCounter =   401
(PID.TID 0000.0001) ADWRITE:  tapeFileCounter =   402
(PID.TID 0000.0001) ADWRITE: tid,vid, irec, length, prec(x2)=    41    85     2     6048  8 64 fname=tapelev2_85_the_main_loop_xx_gentim2d1
(PID.TID 0000.0001) ADWRITE:  tapeFileCounter =   403
(PID.TID 0000.0001) ADWRITE:  tapeFileCounter =   404
(PID.TID 0000.0001) ADWRITE:  tapeFileCounter =   405
(PID.TID 0000.0001) ADWRITE:  tapeFileCounter =   406
(PID.TID 0000.0001) ADWRITE:  tapeFileCounter =   407
(PID.TID 0000.0001) ADWRITE:  tapeFileCounter =   408
(PID.TID 0000.0001) ADWRITE:  tapeFileCounter =   409
(PID.TID 0000.0001) ADWRITE:  tapeFileCounter =   410
(PID.TID 0000.0001) ADWRITE:  tapeFileCounter =   411
(PID.TID 0000.0001) ADWRITE: tid,vid, irec, length, prec(x2)=    41    87     2      672  8 64 fname=tapelev2_87_the_main_loop_phihydlow
(PID.TID 0000.0001) ADWRITE:  tapeFileCounter =   412
(PID.TID 0000.0001) ADWRITE: tid,vid, irec, length, prec(x2)=    41    88     2      672  8 64 fname=tapelev2_88_the_main_loop_area
(PID.TID 0000.0001) ADWRITE:  tapeFileCounter =   413
(PID.TID 0000.0001) ADWRITE: tid,vid, irec, length, prec(x2)=    41    89     2      672  8 64 fname=tapelev2_89_the_main_loop_heff
(PID.TID 0000.0001) ADWRITE:  tapeFileCounter =   414
(PID.TID 0000.0001) ADWRITE: tid,vid, irec, length, prec(x2)=    41    90     2      672  8 64 fname=tapelev2_90_the_main_loop_hsnow
(PID.TID 0000.0001) ADWRITE:  tapeFileCounter =   415
(PID.TID 0000.0001) ADWRITE: tid,vid, irec, length, prec(x2)=    41    92     2      672  8 64 fname=tapelev2_92_the_main_loop_uice
(PID.TID 0000.0001) ADWRITE:  tapeFileCounter =   416
(PID.TID 0000.0001) ADWRITE: tid,vid, irec, length, prec(x2)=    41    93     2      672  8 64 fname=tapelev2_93_the_main_loop_vice
(PID.TID 0000.0001) ADWRITE:  tapeFileCounter =   417
(PID.TID 0000.0001) ADWRITE: tid,vid, irec, length, prec(x2)=    41    96     2     4704  8 64 fname=tapelev2_96_the_main_loop_tices
(PID.TID 0000.0001) ADWRITE:  tapeFileCounter =   418
(PID.TID 0000.0001) ADWRITE:  tapeFileCounter =   419
(PID.TID 0000.0001) ADWRITE:  tapeFileCounter =   420
(PID.TID 0000.0001) ADWRITE:  tapeFileCounter =   421
(PID.TID 0000.0001) ADWRITE:  tapeFileCounter =   422
(PID.TID 0000.0001) ADWRITE:  tapeFileCounter =   423
(PID.TID 0000.0001) ADWRITE:  tapeFileCounter =   424
(PID.TID 0000.0001) ADWRITE: tid,vid, irec, length, prec(x2)=    41    97     2      672  8 64 fname=tapelev2_97_the_main_loop_dwatn
(PID.TID 0000.0001) ADWRITE:  tapeFileCounter =   425
(PID.TID 0000.0001) ADWRITE: tid,vid, irec, length, prec(x2)=    41    98     2      672  8 64 fname=tapelev2_98_the_main_loop_stressdivergencex
(PID.TID 0000.0001) ADWRITE:  tapeFileCounter =   426
(PID.TID 0000.0001) ADWRITE: tid,vid, irec, length, prec(x2)=    41    99     2      672  8 64 fname=tapelev2_99_the_main_loop_stressdivergencey
(PID.TID 0000.0001) ADWRITE:  tapeFileCounter =   427
(PID.TID 0000.0001) ADWRITE: tid,vid, irec, length, prec(x2)=    41   100     2      672  8 64 fname=tapelev2_100_the_main_loop_seaice_sigma1
(PID.TID 0000.0001) ADWRITE:  tapeFileCounter =   428
(PID.TID 0000.0001) ADWRITE: tid,vid, irec, length, prec(x2)=    41   101     2      672  8 64 fname=tapelev2_101_the_main_loop_seaice_sigma2
(PID.TID 0000.0001) ADWRITE:  tapeFileCounter =   429
(PID.TID 0000.0001) ADWRITE: tid,vid, irec, length, prec(x2)=    41   102     2      672  8 64 fname=tapelev2_102_the_main_loop_seaice_sigma12
(PID.TID 0000.0001) ADWRITE:  tapeFileCounter =   430
(PID.TID 0000.0001) ADWRITE: tid,vid, irec, length, prec(x2)=    41   103     2      672  8 64 fname=tapelev2_103_the_main_loop_hsalt
(PID.TID 0000.0001) ADWRITE:  tapeFileCounter =   431
(PID.TID 0000.0001) whio : write lev 2 rec   2
(PID.TID 0000.0001)  MDS_READ_FIELD: opening global file: xx_atemp.effective.0000000001.data
(PID.TID 0000.0001) EXF_SET_FLD: processing field "climsss",  file: SSS_monthly.labsea1979
(PID.TID 0000.0001) EXF_SET_FLD:   myIter, count0, count1:         7      1      2
(PID.TID 0000.0001) EXF_SET_FLD:   first, changed, fac:   F   F    0.49043715846994540
(PID.TID 0000.0001) EXF_SET_FLD: processing field "uwind",  file: u10m.labsea1979
(PID.TID 0000.0001) EXF_SET_FLD:   myIter, count0, count1:         7      1      2
(PID.TID 0000.0001) EXF_SET_FLD:   first, changed, fac:   F   F    0.49043715846994540
(PID.TID 0000.0001) EXF_SET_FLD: processing field "vwind",  file: v10m.labsea1979
(PID.TID 0000.0001) EXF_SET_FLD:   myIter, count0, count1:         7      1      2
(PID.TID 0000.0001) EXF_SET_FLD:   first, changed, fac:   F   F    0.49043715846994540
(PID.TID 0000.0001) EXF_SET_FLD: processing field "atemp",  file: tair.labsea1979
(PID.TID 0000.0001) EXF_SET_FLD:   myIter, count0, count1:         7      1      2
(PID.TID 0000.0001) EXF_SET_FLD:   first, changed, fac:   F   F    0.49043715846994540
(PID.TID 0000.0001) EXF_SET_FLD: processing field "aqh",  file: qa.labsea1979
(PID.TID 0000.0001) EXF_SET_FLD:   myIter, count0, count1:         7      1      2
(PID.TID 0000.0001) EXF_SET_FLD:   first, changed, fac:   F   F    0.49043715846994540
(PID.TID 0000.0001) EXF_SET_FLD: processing field "precip",  file: prate.labsea1979
(PID.TID 0000.0001) EXF_SET_FLD:   myIter, count0, count1:         7      1      2
(PID.TID 0000.0001) EXF_SET_FLD:   first, changed, fac:   F   F    0.49043715846994540
(PID.TID 0000.0001) EXF_SET_FLD: processing field "swdown",  file: fsh.labsea1979
(PID.TID 0000.0001) EXF_SET_FLD:   myIter, count0, count1:         7      1      2
(PID.TID 0000.0001) EXF_SET_FLD:   first, changed, fac:   F   F    0.49043715846994540
(PID.TID 0000.0001) EXF_SET_FLD: processing field "lwdown",  file: flo.labsea1979
(PID.TID 0000.0001) EXF_SET_FLD:   myIter, count0, count1:         7      1      2
(PID.TID 0000.0001) EXF_SET_FLD:   first, changed, fac:   F   F    0.49043715846994540
DEBUG_STATS_RL: Uice pre  iter (SEAICE_LSR  1)  min= -1.54549194525866E-02
DEBUG_STATS_RL: Uice pre  iter (SEAICE_LSR  1)  max=  2.53524286292195E-01
DEBUG_STATS_RL: Uice pre  iter (SEAICE_LSR  1) mean=  6.68799365320119E-02
DEBUG_STATS_RL: Uice pre  iter (SEAICE_LSR  1) S.D.=  7.54478852962580E-02
DEBUG_STATS_RL: Vice pre  iter (SEAICE_LSR  1)  min= -1.68373183021268E-01
DEBUG_STATS_RL: Vice pre  iter (SEAICE_LSR  1)  max=  8.10859368452303E-02
DEBUG_STATS_RL: Vice pre  iter (SEAICE_LSR  1) mean= -4.94905385200998E-02
DEBUG_STATS_RL: Vice pre  iter (SEAICE_LSR  1) S.D.=  5.89447951203408E-02
DEBUG_STATS_RL: Uice pre  iter (SEAICE_LSR  2)  min= -1.68104910559763E-02
DEBUG_STATS_RL: Uice pre  iter (SEAICE_LSR  2)  max=  2.51381266335640E-01
DEBUG_STATS_RL: Uice pre  iter (SEAICE_LSR  2) mean=  6.26056742417120E-02
DEBUG_STATS_RL: Uice pre  iter (SEAICE_LSR  2) S.D.=  7.23215228186589E-02
DEBUG_STATS_RL: Vice pre  iter (SEAICE_LSR  2)  min= -1.70146515867233E-01
DEBUG_STATS_RL: Vice pre  iter (SEAICE_LSR  2)  max=  7.01571636850258E-02
DEBUG_STATS_RL: Vice pre  iter (SEAICE_LSR  2) mean= -5.12009841743803E-02
DEBUG_STATS_RL: Vice pre  iter (SEAICE_LSR  2) S.D.=  5.84735965012139E-02
DEBUG_STATS_RL:                EtaN (DYNAMICS)  min= -1.21025777222894E-01
DEBUG_STATS_RL:                EtaN (DYNAMICS)  max=  3.30607450971643E-01
DEBUG_STATS_RL:                EtaN (DYNAMICS) mean= -3.95955825447081E-03
DEBUG_STATS_RL:                EtaN (DYNAMICS) S.D.=  6.93964235759688E-02
DEBUG_STATS_RL:                Uvel (DYNAMICS)  min= -3.57601727936033E-02
DEBUG_STATS_RL:                Uvel (DYNAMICS)  max=  1.04775938290593E-01
DEBUG_STATS_RL:                Uvel (DYNAMICS) mean=  4.39725630125182E-03
DEBUG_STATS_RL:                Uvel (DYNAMICS) S.D.=  1.39028540310335E-02
DEBUG_STATS_RL:                Vvel (DYNAMICS)  min= -1.27584762387762E-01
DEBUG_STATS_RL:                Vvel (DYNAMICS)  max=  6.50083276838834E-02
DEBUG_STATS_RL:                Vvel (DYNAMICS) mean= -3.36887217582008E-03
DEBUG_STATS_RL:                Vvel (DYNAMICS) S.D.=  1.85890275650197E-02
DEBUG_STATS_RL:                Wvel (DYNAMICS)  min= -2.67954696014334E-04
DEBUG_STATS_RL:                Wvel (DYNAMICS)  max=  3.29804232734301E-04
DEBUG_STATS_RL:                Wvel (DYNAMICS) mean= -4.85616750767614E-08
DEBUG_STATS_RL:                Wvel (DYNAMICS) S.D.=  2.84164537902804E-05
DEBUG_STATS_RL:               Theta (DYNAMICS)  min= -1.95963016104374E+00
DEBUG_STATS_RL:               Theta (DYNAMICS)  max=  1.32396343409662E+01
DEBUG_STATS_RL:               Theta (DYNAMICS) mean=  2.41506584132490E+00
DEBUG_STATS_RL:               Theta (DYNAMICS) S.D.=  2.57443936967394E+00
DEBUG_STATS_RL:                Salt (DYNAMICS)  min=  2.76338867569799E+01
DEBUG_STATS_RL:                Salt (DYNAMICS)  max=  3.54511617149686E+01
DEBUG_STATS_RL:                Salt (DYNAMICS) mean=  3.39367496241626E+01
DEBUG_STATS_RL:                Salt (DYNAMICS) S.D.=  1.15359229307638E+00
DEBUG_STATS_RL:                  Gu (DYNAMICS)  min= -5.18639383664093E-02
DEBUG_STATS_RL:                  Gu (DYNAMICS)  max=  1.08500044377568E-01
DEBUG_STATS_RL:                  Gu (DYNAMICS) mean=  2.22152146945400E-03
DEBUG_STATS_RL:                  Gu (DYNAMICS) S.D.=  1.62488741545267E-02
DEBUG_STATS_RL:                  Gv (DYNAMICS)  min= -1.40216393355448E-01
DEBUG_STATS_RL:                  Gv (DYNAMICS)  max=  4.07135165171732E-02
DEBUG_STATS_RL:                  Gv (DYNAMICS) mean= -7.84361289825861E-03
DEBUG_STATS_RL:                  Gv (DYNAMICS) S.D.=  1.86090017356288E-02
DEBUG_STATS_RL:               GuNm1 (DYNAMICS)  min= -3.48473911940034E-07
DEBUG_STATS_RL:               GuNm1 (DYNAMICS)  max=  1.90416017948021E-07
DEBUG_STATS_RL:               GuNm1 (DYNAMICS) mean= -3.12306477014106E-09
DEBUG_STATS_RL:               GuNm1 (DYNAMICS) S.D.=  4.09417632400134E-08
DEBUG_STATS_RL:               GvNm1 (DYNAMICS)  min= -2.15359173477236E-07
DEBUG_STATS_RL:               GvNm1 (DYNAMICS)  max=  1.82438063100004E-07
DEBUG_STATS_RL:               GvNm1 (DYNAMICS) mean= -6.53519601921780E-10
DEBUG_STATS_RL:               GvNm1 (DYNAMICS) S.D.=  4.16452354556348E-08
DEBUG_STATS_RL:               GtNm1 (DYNAMICS)  min=  0.00000000000000E+00
DEBUG_STATS_RL:               GtNm1 (DYNAMICS)  max=  0.00000000000000E+00
DEBUG_STATS_RL:               GtNm1 (DYNAMICS) mean=  0.00000000000000E+00
DEBUG_STATS_RL:               GtNm1 (DYNAMICS) S.D.=  0.00000000000000E+00
DEBUG_STATS_RL:               GsNm1 (DYNAMICS)  min=  0.00000000000000E+00
DEBUG_STATS_RL:               GsNm1 (DYNAMICS)  max=  0.00000000000000E+00
DEBUG_STATS_RL:               GsNm1 (DYNAMICS) mean=  0.00000000000000E+00
DEBUG_STATS_RL:               GsNm1 (DYNAMICS) S.D.=  0.00000000000000E+00
DEBUG_STATS_RL:    cg2d_b (SOLVE_FOR_PRESSURE)  min= -7.37985604508148E+03
DEBUG_STATS_RL:    cg2d_b (SOLVE_FOR_PRESSURE)  max=  2.18366607280435E+03
DEBUG_STATS_RL:    cg2d_b (SOLVE_FOR_PRESSURE) mean=  6.18645875268461E-13
DEBUG_STATS_RL:    cg2d_b (SOLVE_FOR_PRESSURE) S.D.=  8.98963545839594E+02
 cg2d: Sum(rhs),rhsMax =   1.34267597040605E-14  1.18778339080378E+00
DEBUG_STATS_RL:    cg2d_x (SOLVE_FOR_PRESSURE)  min= -1.13929441834640E+00
DEBUG_STATS_RL:    cg2d_x (SOLVE_FOR_PRESSURE)  max=  3.20616731162253E+00
DEBUG_STATS_RL:    cg2d_x (SOLVE_FOR_PRESSURE) mean= -4.15672442271453E-02
DEBUG_STATS_RL:    cg2d_x (SOLVE_FOR_PRESSURE) S.D.=  6.51074617232215E-01
DEBUG_STATS_RL:          Uvel (THERMODYNAMICS)  min= -4.34802359621465E-02
DEBUG_STATS_RL:          Uvel (THERMODYNAMICS)  max=  9.99752242998808E-02
DEBUG_STATS_RL:          Uvel (THERMODYNAMICS) mean=  3.48264152589957E-03
DEBUG_STATS_RL:          Uvel (THERMODYNAMICS) S.D.=  1.35343125506116E-02
DEBUG_STATS_RL:          Vvel (THERMODYNAMICS)  min= -1.33439207289254E-01
DEBUG_STATS_RL:          Vvel (THERMODYNAMICS)  max=  5.60260700766945E-02
DEBUG_STATS_RL:          Vvel (THERMODYNAMICS) mean= -4.02696574872961E-03
DEBUG_STATS_RL:          Vvel (THERMODYNAMICS) S.D.=  1.80273334212797E-02
DEBUG_STATS_RL:          Wvel (THERMODYNAMICS)  min= -2.73348162229354E-04
DEBUG_STATS_RL:          Wvel (THERMODYNAMICS)  max=  3.13596923283671E-04
DEBUG_STATS_RL:          Wvel (THERMODYNAMICS) mean=  4.73709411313520E-08
DEBUG_STATS_RL:          Wvel (THERMODYNAMICS) S.D.=  2.82661454219204E-05
DEBUG_STATS_RL:         Theta (THERMODYNAMICS)  min= -1.95943609422387E+00
DEBUG_STATS_RL:         Theta (THERMODYNAMICS)  max=  1.32225113409295E+01
DEBUG_STATS_RL:         Theta (THERMODYNAMICS) mean=  2.41480286619418E+00
DEBUG_STATS_RL:         Theta (THERMODYNAMICS) S.D.=  2.57398860030337E+00
DEBUG_STATS_RL:          Salt (THERMODYNAMICS)  min=  2.76387468555707E+01
DEBUG_STATS_RL:          Salt (THERMODYNAMICS)  max=  3.54510358217953E+01
DEBUG_STATS_RL:          Salt (THERMODYNAMICS) mean=  3.39367601804946E+01
DEBUG_STATS_RL:          Salt (THERMODYNAMICS) S.D.=  1.15334890349729E+00
DEBUG_STATS_RL:         GtNm1 (THERMODYNAMICS)  min=  0.00000000000000E+00
DEBUG_STATS_RL:         GtNm1 (THERMODYNAMICS)  max=  0.00000000000000E+00
DEBUG_STATS_RL:         GtNm1 (THERMODYNAMICS) mean=  0.00000000000000E+00
DEBUG_STATS_RL:         GtNm1 (THERMODYNAMICS) S.D.=  0.00000000000000E+00
DEBUG_STATS_RL:         GsNm1 (THERMODYNAMICS)  min=  0.00000000000000E+00
DEBUG_STATS_RL:         GsNm1 (THERMODYNAMICS)  max=  0.00000000000000E+00
DEBUG_STATS_RL:         GsNm1 (THERMODYNAMICS) mean=  0.00000000000000E+00
DEBUG_STATS_RL:         GsNm1 (THERMODYNAMICS) S.D.=  0.00000000000000E+00
(PID.TID 0000.0001)  MDS_READ_FIELD: opening global file: xx_atemp.effective.0000000001.data
(PID.TID 0000.0001) EXF_SET_FLD: processing field "climsss",  file: SSS_monthly.labsea1979
(PID.TID 0000.0001) EXF_SET_FLD:   myIter, count0, count1:         8      1      2
(PID.TID 0000.0001) EXF_SET_FLD:   first, changed, fac:   F   F    0.48907103825136611
(PID.TID 0000.0001) EXF_SET_FLD: processing field "uwind",  file: u10m.labsea1979
(PID.TID 0000.0001) EXF_SET_FLD:   myIter, count0, count1:         8      1      2
(PID.TID 0000.0001) EXF_SET_FLD:   first, changed, fac:   F   F    0.48907103825136611
(PID.TID 0000.0001) EXF_SET_FLD: processing field "vwind",  file: v10m.labsea1979
(PID.TID 0000.0001) EXF_SET_FLD:   myIter, count0, count1:         8      1      2
(PID.TID 0000.0001) EXF_SET_FLD:   first, changed, fac:   F   F    0.48907103825136611
(PID.TID 0000.0001) EXF_SET_FLD: processing field "atemp",  file: tair.labsea1979
(PID.TID 0000.0001) EXF_SET_FLD:   myIter, count0, count1:         8      1      2
(PID.TID 0000.0001) EXF_SET_FLD:   first, changed, fac:   F   F    0.48907103825136611
(PID.TID 0000.0001) EXF_SET_FLD: processing field "aqh",  file: qa.labsea1979
(PID.TID 0000.0001) EXF_SET_FLD:   myIter, count0, count1:         8      1      2
(PID.TID 0000.0001) EXF_SET_FLD:   first, changed, fac:   F   F    0.48907103825136611
(PID.TID 0000.0001) EXF_SET_FLD: processing field "precip",  file: prate.labsea1979
(PID.TID 0000.0001) EXF_SET_FLD:   myIter, count0, count1:         8      1      2
(PID.TID 0000.0001) EXF_SET_FLD:   first, changed, fac:   F   F    0.48907103825136611
(PID.TID 0000.0001) EXF_SET_FLD: processing field "swdown",  file: fsh.labsea1979
(PID.TID 0000.0001) EXF_SET_FLD:   myIter, count0, count1:         8      1      2
(PID.TID 0000.0001) EXF_SET_FLD:   first, changed, fac:   F   F    0.48907103825136611
(PID.TID 0000.0001) EXF_SET_FLD: processing field "lwdown",  file: flo.labsea1979
(PID.TID 0000.0001) EXF_SET_FLD:   myIter, count0, count1:         8      1      2
(PID.TID 0000.0001) EXF_SET_FLD:   first, changed, fac:   F   F    0.48907103825136611
DEBUG_STATS_RL: Uice pre  iter (SEAICE_LSR  1)  min= -1.95687208100102E-02
DEBUG_STATS_RL: Uice pre  iter (SEAICE_LSR  1)  max=  2.56695252608154E-01
DEBUG_STATS_RL: Uice pre  iter (SEAICE_LSR  1) mean=  6.10102626008752E-02
DEBUG_STATS_RL: Uice pre  iter (SEAICE_LSR  1) S.D.=  7.26515133443026E-02
DEBUG_STATS_RL: Vice pre  iter (SEAICE_LSR  1)  min= -1.74351841639993E-01
DEBUG_STATS_RL: Vice pre  iter (SEAICE_LSR  1)  max=  6.17815719868620E-02
DEBUG_STATS_RL: Vice pre  iter (SEAICE_LSR  1) mean= -5.34332922103127E-02
DEBUG_STATS_RL: Vice pre  iter (SEAICE_LSR  1) S.D.=  5.91879685811095E-02
DEBUG_STATS_RL: Uice pre  iter (SEAICE_LSR  2)  min= -2.10631196463131E-02
DEBUG_STATS_RL: Uice pre  iter (SEAICE_LSR  2)  max=  2.47741110498678E-01
DEBUG_STATS_RL: Uice pre  iter (SEAICE_LSR  2) mean=  5.58563099525574E-02
DEBUG_STATS_RL: Uice pre  iter (SEAICE_LSR  2) S.D.=  6.83562873807025E-02
DEBUG_STATS_RL: Vice pre  iter (SEAICE_LSR  2)  min= -1.71270231909308E-01
DEBUG_STATS_RL: Vice pre  iter (SEAICE_LSR  2)  max=  5.00408736690829E-02
DEBUG_STATS_RL: Vice pre  iter (SEAICE_LSR  2) mean= -5.35471708937630E-02
DEBUG_STATS_RL: Vice pre  iter (SEAICE_LSR  2) S.D.=  5.75117440524867E-02
DEBUG_STATS_RL:                EtaN (DYNAMICS)  min= -1.16069768363258E-01
DEBUG_STATS_RL:                EtaN (DYNAMICS)  max=  3.26639972250553E-01
DEBUG_STATS_RL:                EtaN (DYNAMICS) mean= -4.23481440025525E-03
DEBUG_STATS_RL:                EtaN (DYNAMICS) S.D.=  6.63305979494085E-02
DEBUG_STATS_RL:                Uvel (DYNAMICS)  min= -4.34802359621465E-02
DEBUG_STATS_RL:                Uvel (DYNAMICS)  max=  9.99752242998808E-02
DEBUG_STATS_RL:                Uvel (DYNAMICS) mean=  3.48264152589957E-03
DEBUG_STATS_RL:                Uvel (DYNAMICS) S.D.=  1.35343125506116E-02
DEBUG_STATS_RL:                Vvel (DYNAMICS)  min= -1.33439207289254E-01
DEBUG_STATS_RL:                Vvel (DYNAMICS)  max=  5.60260700766945E-02
DEBUG_STATS_RL:                Vvel (DYNAMICS) mean= -4.02696574872961E-03
DEBUG_STATS_RL:                Vvel (DYNAMICS) S.D.=  1.80273334212797E-02
DEBUG_STATS_RL:                Wvel (DYNAMICS)  min= -2.73348162229354E-04
DEBUG_STATS_RL:                Wvel (DYNAMICS)  max=  3.13596923283671E-04
DEBUG_STATS_RL:                Wvel (DYNAMICS) mean=  4.73709411313520E-08
DEBUG_STATS_RL:                Wvel (DYNAMICS) S.D.=  2.82661454219204E-05
DEBUG_STATS_RL:               Theta (DYNAMICS)  min= -1.95943609422387E+00
DEBUG_STATS_RL:               Theta (DYNAMICS)  max=  1.32225113409295E+01
DEBUG_STATS_RL:               Theta (DYNAMICS) mean=  2.41480286619418E+00
DEBUG_STATS_RL:               Theta (DYNAMICS) S.D.=  2.57398860030337E+00
DEBUG_STATS_RL:                Salt (DYNAMICS)  min=  2.76387468555707E+01
DEBUG_STATS_RL:                Salt (DYNAMICS)  max=  3.54510358217953E+01
DEBUG_STATS_RL:                Salt (DYNAMICS) mean=  3.39367601804946E+01
DEBUG_STATS_RL:                Salt (DYNAMICS) S.D.=  1.15334890349729E+00
DEBUG_STATS_RL:                  Gu (DYNAMICS)  min= -5.98368153074020E-02
DEBUG_STATS_RL:                  Gu (DYNAMICS)  max=  9.68873121299251E-02
DEBUG_STATS_RL:                  Gu (DYNAMICS) mean=  1.30194972947503E-03
DEBUG_STATS_RL:                  Gu (DYNAMICS) S.D.=  1.61566615235326E-02
DEBUG_STATS_RL:                  Gv (DYNAMICS)  min= -1.36271217267994E-01
DEBUG_STATS_RL:                  Gv (DYNAMICS)  max=  3.83573237348583E-02
DEBUG_STATS_RL:                  Gv (DYNAMICS) mean= -7.71950831958569E-03
DEBUG_STATS_RL:                  Gv (DYNAMICS) S.D.=  1.77533563667874E-02
DEBUG_STATS_RL:               GuNm1 (DYNAMICS)  min= -3.40955168137046E-07
DEBUG_STATS_RL:               GuNm1 (DYNAMICS)  max=  1.82641400821284E-07
DEBUG_STATS_RL:               GuNm1 (DYNAMICS) mean= -2.79196714442664E-09
DEBUG_STATS_RL:               GuNm1 (DYNAMICS) S.D.=  4.07453533304239E-08
DEBUG_STATS_RL:               GvNm1 (DYNAMICS)  min= -2.14559263714299E-07
DEBUG_STATS_RL:               GvNm1 (DYNAMICS)  max=  1.94148824775153E-07
DEBUG_STATS_RL:               GvNm1 (DYNAMICS) mean= -4.04169206802268E-10
DEBUG_STATS_RL:               GvNm1 (DYNAMICS) S.D.=  4.19222729579498E-08
DEBUG_STATS_RL:               GtNm1 (DYNAMICS)  min=  0.00000000000000E+00
DEBUG_STATS_RL:               GtNm1 (DYNAMICS)  max=  0.00000000000000E+00
DEBUG_STATS_RL:               GtNm1 (DYNAMICS) mean=  0.00000000000000E+00
DEBUG_STATS_RL:               GtNm1 (DYNAMICS) S.D.=  0.00000000000000E+00
DEBUG_STATS_RL:               GsNm1 (DYNAMICS)  min=  0.00000000000000E+00
DEBUG_STATS_RL:               GsNm1 (DYNAMICS)  max=  0.00000000000000E+00
DEBUG_STATS_RL:               GsNm1 (DYNAMICS) mean=  0.00000000000000E+00
DEBUG_STATS_RL:               GsNm1 (DYNAMICS) S.D.=  0.00000000000000E+00
DEBUG_STATS_RL:    cg2d_b (SOLVE_FOR_PRESSURE)  min= -7.29975929937793E+03
DEBUG_STATS_RL:    cg2d_b (SOLVE_FOR_PRESSURE)  max=  2.19478299507054E+03
DEBUG_STATS_RL:    cg2d_b (SOLVE_FOR_PRESSURE) mean= -3.96767063648440E-13
DEBUG_STATS_RL:    cg2d_b (SOLVE_FOR_PRESSURE) S.D.=  8.94146290227710E+02
 cg2d: Sum(rhs),rhsMax =  -6.92501611609941E-15  1.17489186776824E+00
DEBUG_STATS_RL:    cg2d_x (SOLVE_FOR_PRESSURE)  min= -1.08771127617308E+00
DEBUG_STATS_RL:    cg2d_x (SOLVE_FOR_PRESSURE)  max=  3.12128519797376E+00
DEBUG_STATS_RL:    cg2d_x (SOLVE_FOR_PRESSURE) mean= -4.19588396852395E-02
DEBUG_STATS_RL:    cg2d_x (SOLVE_FOR_PRESSURE) S.D.=  6.20262122262901E-01
DEBUG_STATS_RL:          Uvel (THERMODYNAMICS)  min= -5.12375198242059E-02
DEBUG_STATS_RL:          Uvel (THERMODYNAMICS)  max=  8.84896388076339E-02
DEBUG_STATS_RL:          Uvel (THERMODYNAMICS) mean=  2.55769138538291E-03
DEBUG_STATS_RL:          Uvel (THERMODYNAMICS) S.D.=  1.29064693910456E-02
DEBUG_STATS_RL:          Vvel (THERMODYNAMICS)  min= -1.29344604199479E-01
DEBUG_STATS_RL:          Vvel (THERMODYNAMICS)  max=  4.58633296186249E-02
DEBUG_STATS_RL:          Vvel (THERMODYNAMICS) mean= -4.14107843006319E-03
DEBUG_STATS_RL:          Vvel (THERMODYNAMICS) S.D.=  1.66082836245794E-02
DEBUG_STATS_RL:          Wvel (THERMODYNAMICS)  min= -2.60848991809587E-04
DEBUG_STATS_RL:          Wvel (THERMODYNAMICS)  max=  2.85731299794369E-04
DEBUG_STATS_RL:          Wvel (THERMODYNAMICS) mean=  1.36793666178293E-07
DEBUG_STATS_RL:          Wvel (THERMODYNAMICS) S.D.=  2.70580054557619E-05
DEBUG_STATS_RL:         Theta (THERMODYNAMICS)  min= -1.95932886747261E+00
DEBUG_STATS_RL:         Theta (THERMODYNAMICS)  max=  1.32010303660582E+01
DEBUG_STATS_RL:         Theta (THERMODYNAMICS) mean=  2.41452315045422E+00
DEBUG_STATS_RL:         Theta (THERMODYNAMICS) S.D.=  2.57350774067654E+00
DEBUG_STATS_RL:          Salt (THERMODYNAMICS)  min=  2.76435505129419E+01
DEBUG_STATS_RL:          Salt (THERMODYNAMICS)  max=  3.54508660670958E+01
DEBUG_STATS_RL:          Salt (THERMODYNAMICS) mean=  3.39367749828872E+01
DEBUG_STATS_RL:          Salt (THERMODYNAMICS) S.D.=  1.15309738582237E+00
DEBUG_STATS_RL:         GtNm1 (THERMODYNAMICS)  min=  0.00000000000000E+00
DEBUG_STATS_RL:         GtNm1 (THERMODYNAMICS)  max=  0.00000000000000E+00
DEBUG_STATS_RL:         GtNm1 (THERMODYNAMICS) mean=  0.00000000000000E+00
DEBUG_STATS_RL:         GtNm1 (THERMODYNAMICS) S.D.=  0.00000000000000E+00
DEBUG_STATS_RL:         GsNm1 (THERMODYNAMICS)  min=  0.00000000000000E+00
DEBUG_STATS_RL:         GsNm1 (THERMODYNAMICS)  max=  0.00000000000000E+00
DEBUG_STATS_RL:         GsNm1 (THERMODYNAMICS) mean=  0.00000000000000E+00
DEBUG_STATS_RL:         GsNm1 (THERMODYNAMICS) S.D.=  0.00000000000000E+00
(PID.TID 0000.0001) Did not write pickup because writePickupAtEnd = FALSE
(PID.TID 0000.0001) ADREAD:  tid,vid, irec, length, prec(x2)=    41     1     2      672  8 64 fname=tapelev2_1_the_main_loop_etan
(PID.TID 0000.0001) ADREAD:  tid,vid, irec, length, prec(x2)=    41     2     2      672  8 64 fname=tapelev2_2_the_main_loop_taux0
(PID.TID 0000.0001) ADREAD:  tid,vid, irec, length, prec(x2)=    41     3     2      672  8 64 fname=tapelev2_3_the_main_loop_taux1
(PID.TID 0000.0001) ADREAD:  tid,vid, irec, length, prec(x2)=    41     4     2      672  8 64 fname=tapelev2_4_the_main_loop_tauy0
(PID.TID 0000.0001) ADREAD:  tid,vid, irec, length, prec(x2)=    41     5     2      672  8 64 fname=tapelev2_5_the_main_loop_tauy1
(PID.TID 0000.0001) ADREAD:  tid,vid, irec, length, prec(x2)=    41     6     2      672  8 64 fname=tapelev2_6_the_main_loop_qnet0
(PID.TID 0000.0001) ADREAD:  tid,vid, irec, length, prec(x2)=    41     7     2      672  8 64 fname=tapelev2_7_the_main_loop_qnet1
(PID.TID 0000.0001) ADREAD:  tid,vid, irec, length, prec(x2)=    41     8     2      672  8 64 fname=tapelev2_8_the_main_loop_empmr0
(PID.TID 0000.0001) ADREAD:  tid,vid, irec, length, prec(x2)=    41     9     2      672  8 64 fname=tapelev2_9_the_main_loop_empmr1
(PID.TID 0000.0001) ADREAD:  tid,vid, irec, length, prec(x2)=    41    10     2      672  8 64 fname=tapelev2_10_the_main_loop_sst0
(PID.TID 0000.0001) ADREAD:  tid,vid, irec, length, prec(x2)=    41    11     2      672  8 64 fname=tapelev2_11_the_main_loop_sst1
(PID.TID 0000.0001) ADREAD:  tid,vid, irec, length, prec(x2)=    41    12     2      672  8 64 fname=tapelev2_12_the_main_loop_sss0
(PID.TID 0000.0001) ADREAD:  tid,vid, irec, length, prec(x2)=    41    13     2      672  8 64 fname=tapelev2_13_the_main_loop_sss1
(PID.TID 0000.0001) ADREAD:  tid,vid, irec, length, prec(x2)=    41    14     2      672  8 64 fname=tapelev2_14_the_main_loop_saltflux0
(PID.TID 0000.0001) ADREAD:  tid,vid, irec, length, prec(x2)=    41    15     2      672  8 64 fname=tapelev2_15_the_main_loop_saltflux1
(PID.TID 0000.0001) ADREAD:  tid,vid, irec, length, prec(x2)=    41    16     2      672  8 64 fname=tapelev2_16_the_main_loop_qsw0
(PID.TID 0000.0001) ADREAD:  tid,vid, irec, length, prec(x2)=    41    17     2      672  8 64 fname=tapelev2_17_the_main_loop_qsw1
(PID.TID 0000.0001) ADREAD:  tid,vid, irec, length, prec(x2)=    41    18     2      672  8 64 fname=tapelev2_18_the_main_loop_pload0
(PID.TID 0000.0001) ADREAD:  tid,vid, irec, length, prec(x2)=    41    19     2      672  8 64 fname=tapelev2_19_the_main_loop_pload1
(PID.TID 0000.0001) ADREAD:  tid,vid, irec, length, prec(x2)=    41    20     2      672  8 64 fname=tapelev2_20_the_main_loop_etah
(PID.TID 0000.0001) ADREAD:  tid,vid, irec, length, prec(x2)=    41    21     2      672  8 64 fname=tapelev2_21_the_main_loop_detahdt
(PID.TID 0000.0001) ADREAD:  tid,vid, irec, length, prec(x2)=    41    22     2      672  8 64 fname=tapelev2_22_the_main_loop_pmepr
(PID.TID 0000.0001) ADREAD:  tid,vid, irec, length, prec(x2)=    41    23     2    15456  8 64 fname=tapelev2_23_the_main_loop_gtnm1
(PID.TID 0000.0001) ADREAD:  tid,vid, irec, length, prec(x2)=    41    24     2    15456  8 64 fname=tapelev2_24_the_main_loop_gsnm1
(PID.TID 0000.0001) ADREAD:  tid,vid, irec, length, prec(x2)=    41    25     2    15456  8 64 fname=tapelev2_25_the_main_loop_gunm1
(PID.TID 0000.0001) ADREAD:  tid,vid, irec, length, prec(x2)=    41    26     2    15456  8 64 fname=tapelev2_26_the_main_loop_gvnm1
(PID.TID 0000.0001) ADREAD:  tid,vid, irec, length, prec(x2)=    41    27     2    15456  8 64 fname=tapelev2_27_the_main_loop_theta
(PID.TID 0000.0001) ADREAD:  tid,vid, irec, length, prec(x2)=    41    28     2    15456  8 64 fname=tapelev2_28_the_main_loop_salt
(PID.TID 0000.0001) ADREAD:  tid,vid, irec, length, prec(x2)=    41    29     2    15456  8 64 fname=tapelev2_29_the_main_loop_uvel
(PID.TID 0000.0001) ADREAD:  tid,vid, irec, length, prec(x2)=    41    30     2    15456  8 64 fname=tapelev2_30_the_main_loop_vvel
(PID.TID 0000.0001) ADREAD:  tid,vid, irec, length, prec(x2)=    41    31     2    15456  8 64 fname=tapelev2_31_the_main_loop_wvel
(PID.TID 0000.0001) ADREAD:  tid,vid, irec, length, prec(x2)=    41    32     2    15456  8 64 fname=tapelev2_32_the_main_loop_totphihyd
(PID.TID 0000.0001) ADREAD:  tid,vid, irec, length, prec(x2)=    41    35     2    15456  8 64 fname=tapelev2_35_the_main_loop_uveld
(PID.TID 0000.0001) ADREAD:  tid,vid, irec, length, prec(x2)=    41    36     2    15456  8 64 fname=tapelev2_36_the_main_loop_vveld
(PID.TID 0000.0001) ADREAD:  tid,vid, irec, length, prec(x2)=    41    37     2      672  8 64 fname=tapelev2_37_the_main_loop_etanm1
(PID.TID 0000.0001) ADREAD:  tid,vid, irec, length, prec(x2)=    41    38     2    15456  8 64 fname=tapelev2_38_the_main_loop_unm1
(PID.TID 0000.0001) ADREAD:  tid,vid, irec, length, prec(x2)=    41    39     2    15456  8 64 fname=tapelev2_39_the_main_loop_vnm1
(PID.TID 0000.0001) ADREAD:  tid,vid, irec, length, prec(x2)=    41    40     2      672  8 64 fname=tapelev2_40_the_main_loop_areamask0
(PID.TID 0000.0001) ADREAD:  tid,vid, irec, length, prec(x2)=    41    41     2      672  8 64 fname=tapelev2_41_the_main_loop_areamask1
(PID.TID 0000.0001) ADREAD:  tid,vid, irec, length, prec(x2)=    41    42     2      672  8 64 fname=tapelev2_42_the_main_loop_hflux0
(PID.TID 0000.0001) ADREAD:  tid,vid, irec, length, prec(x2)=    41    43     2      672  8 64 fname=tapelev2_43_the_main_loop_hflux1
(PID.TID 0000.0001) ADREAD:  tid,vid, irec, length, prec(x2)=    41    44     2      672  8 64 fname=tapelev2_44_the_main_loop_sflux0
(PID.TID 0000.0001) ADREAD:  tid,vid, irec, length, prec(x2)=    41    45     2      672  8 64 fname=tapelev2_45_the_main_loop_sflux1
(PID.TID 0000.0001) ADREAD:  tid,vid, irec, length, prec(x2)=    41    46     2      672  8 64 fname=tapelev2_46_the_main_loop_ustress0
(PID.TID 0000.0001) ADREAD:  tid,vid, irec, length, prec(x2)=    41    47     2      672  8 64 fname=tapelev2_47_the_main_loop_ustress1
(PID.TID 0000.0001) ADREAD:  tid,vid, irec, length, prec(x2)=    41    48     2      672  8 64 fname=tapelev2_48_the_main_loop_vstress0
(PID.TID 0000.0001) ADREAD:  tid,vid, irec, length, prec(x2)=    41    49     2      672  8 64 fname=tapelev2_49_the_main_loop_vstress1
(PID.TID 0000.0001) ADREAD:  tid,vid, irec, length, prec(x2)=    41    50     2      672  8 64 fname=tapelev2_50_the_main_loop_wspeed0
(PID.TID 0000.0001) ADREAD:  tid,vid, irec, length, prec(x2)=    41    51     2      672  8 64 fname=tapelev2_51_the_main_loop_wspeed1
(PID.TID 0000.0001) ADREAD:  tid,vid, irec, length, prec(x2)=    41    54     2      672  8 64 fname=tapelev2_54_the_main_loop_runoff0
(PID.TID 0000.0001) ADREAD:  tid,vid, irec, length, prec(x2)=    41    55     2      672  8 64 fname=tapelev2_55_the_main_loop_runoff1
(PID.TID 0000.0001) ADREAD:  tid,vid, irec, length, prec(x2)=    41    56     2      672  8 64 fname=tapelev2_56_the_main_loop_apressure0
(PID.TID 0000.0001) ADREAD:  tid,vid, irec, length, prec(x2)=    41    57     2      672  8 64 fname=tapelev2_57_the_main_loop_apressure1
(PID.TID 0000.0001) ADREAD:  tid,vid, irec, length, prec(x2)=    41    58     2      672  8 64 fname=tapelev2_58_the_main_loop_siceload
(PID.TID 0000.0001) ADREAD:  tid,vid, irec, length, prec(x2)=    41    59     2      672  8 64 fname=tapelev2_59_the_main_loop_climsss0
(PID.TID 0000.0001) ADREAD:  tid,vid, irec, length, prec(x2)=    41    60     2      672  8 64 fname=tapelev2_60_the_main_loop_climsss1
(PID.TID 0000.0001) ADREAD:  tid,vid, irec, length, prec(x2)=    41    61     2      672  8 64 fname=tapelev2_61_the_main_loop_climsst0
(PID.TID 0000.0001) ADREAD:  tid,vid, irec, length, prec(x2)=    41    62     2      672  8 64 fname=tapelev2_62_the_main_loop_climsst1
(PID.TID 0000.0001) ADREAD:  tid,vid, irec, length, prec(x2)=    41    63     2      672  8 64 fname=tapelev2_63_the_main_loop_saltflx0
(PID.TID 0000.0001) ADREAD:  tid,vid, irec, length, prec(x2)=    41    64     2      672  8 64 fname=tapelev2_64_the_main_loop_saltflx1
(PID.TID 0000.0001) ADREAD:  tid,vid, irec, length, prec(x2)=    41    65     2      672  8 64 fname=tapelev2_65_the_main_loop_aqh0
(PID.TID 0000.0001) ADREAD:  tid,vid, irec, length, prec(x2)=    41    66     2      672  8 64 fname=tapelev2_66_the_main_loop_aqh1
(PID.TID 0000.0001) ADREAD:  tid,vid, irec, length, prec(x2)=    41    67     2      672  8 64 fname=tapelev2_67_the_main_loop_atemp0
(PID.TID 0000.0001) ADREAD:  tid,vid, irec, length, prec(x2)=    41    68     2      672  8 64 fname=tapelev2_68_the_main_loop_atemp1
(PID.TID 0000.0001) ADREAD:  tid,vid, irec, length, prec(x2)=    41    69     2      672  8 64 fname=tapelev2_69_the_main_loop_precip0
(PID.TID 0000.0001) ADREAD:  tid,vid, irec, length, prec(x2)=    41    70     2      672  8 64 fname=tapelev2_70_the_main_loop_precip1
(PID.TID 0000.0001) ADREAD:  tid,vid, irec, length, prec(x2)=    41    73     2      672  8 64 fname=tapelev2_73_the_main_loop_snowprecip0
(PID.TID 0000.0001) ADREAD:  tid,vid, irec, length, prec(x2)=    41    74     2      672  8 64 fname=tapelev2_74_the_main_loop_snowprecip1
(PID.TID 0000.0001) ADREAD:  tid,vid, irec, length, prec(x2)=    41    75     2      672  8 64 fname=tapelev2_75_the_main_loop_swdown0
(PID.TID 0000.0001) ADREAD:  tid,vid, irec, length, prec(x2)=    41    76     2      672  8 64 fname=tapelev2_76_the_main_loop_swdown1
(PID.TID 0000.0001) ADREAD:  tid,vid, irec, length, prec(x2)=    41    77     2      672  8 64 fname=tapelev2_77_the_main_loop_lwdown0
(PID.TID 0000.0001) ADREAD:  tid,vid, irec, length, prec(x2)=    41    78     2      672  8 64 fname=tapelev2_78_the_main_loop_lwdown1
(PID.TID 0000.0001) ADREAD:  tid,vid, irec, length, prec(x2)=    41    79     2      672  8 64 fname=tapelev2_79_the_main_loop_uwind0
(PID.TID 0000.0001) ADREAD:  tid,vid, irec, length, prec(x2)=    41    80     2      672  8 64 fname=tapelev2_80_the_main_loop_uwind1
(PID.TID 0000.0001) ADREAD:  tid,vid, irec, length, prec(x2)=    41    81     2      672  8 64 fname=tapelev2_81_the_main_loop_vwind0
(PID.TID 0000.0001) ADREAD:  tid,vid, irec, length, prec(x2)=    41    82     2      672  8 64 fname=tapelev2_82_the_main_loop_vwind1
(PID.TID 0000.0001) ADREAD:  tid,vid, irec, length, prec(x2)=    41    83     2     6048  8 64 fname=tapelev2_83_the_main_loop_xx_gentim2d
(PID.TID 0000.0001) ADREAD:  tid,vid, irec, length, prec(x2)=    41    84     2     6048  8 64 fname=tapelev2_84_the_main_loop_xx_gentim2d0
(PID.TID 0000.0001) ADREAD:  tid,vid, irec, length, prec(x2)=    41    85     2     6048  8 64 fname=tapelev2_85_the_main_loop_xx_gentim2d1
(PID.TID 0000.0001) ADREAD:  tid,vid, irec, length, prec(x2)=    41    87     2      672  8 64 fname=tapelev2_87_the_main_loop_phihydlow
(PID.TID 0000.0001) ADREAD:  tid,vid, irec, length, prec(x2)=    41    88     2      672  8 64 fname=tapelev2_88_the_main_loop_area
(PID.TID 0000.0001) ADREAD:  tid,vid, irec, length, prec(x2)=    41    89     2      672  8 64 fname=tapelev2_89_the_main_loop_heff
(PID.TID 0000.0001) ADREAD:  tid,vid, irec, length, prec(x2)=    41    90     2      672  8 64 fname=tapelev2_90_the_main_loop_hsnow
(PID.TID 0000.0001) ADREAD:  tid,vid, irec, length, prec(x2)=    41    92     2      672  8 64 fname=tapelev2_92_the_main_loop_uice
(PID.TID 0000.0001) ADREAD:  tid,vid, irec, length, prec(x2)=    41    93     2      672  8 64 fname=tapelev2_93_the_main_loop_vice
(PID.TID 0000.0001) ADREAD:  tid,vid, irec, length, prec(x2)=    41    96     2     4704  8 64 fname=tapelev2_96_the_main_loop_tices
(PID.TID 0000.0001) ADREAD:  tid,vid, irec, length, prec(x2)=    41    97     2      672  8 64 fname=tapelev2_97_the_main_loop_dwatn
(PID.TID 0000.0001) ADREAD:  tid,vid, irec, length, prec(x2)=    41    98     2      672  8 64 fname=tapelev2_98_the_main_loop_stressdivergencex
(PID.TID 0000.0001) ADREAD:  tid,vid, irec, length, prec(x2)=    41    99     2      672  8 64 fname=tapelev2_99_the_main_loop_stressdivergencey
(PID.TID 0000.0001) ADREAD:  tid,vid, irec, length, prec(x2)=    41   100     2      672  8 64 fname=tapelev2_100_the_main_loop_seaice_sigma1
(PID.TID 0000.0001) ADREAD:  tid,vid, irec, length, prec(x2)=    41   101     2      672  8 64 fname=tapelev2_101_the_main_loop_seaice_sigma2
(PID.TID 0000.0001) ADREAD:  tid,vid, irec, length, prec(x2)=    41   102     2      672  8 64 fname=tapelev2_102_the_main_loop_seaice_sigma12
(PID.TID 0000.0001) ADREAD:  tid,vid, irec, length, prec(x2)=    41   103     2      672  8 64 fname=tapelev2_103_the_main_loop_hsalt
(PID.TID 0000.0001)  MDS_READ_FIELD: opening global file: xx_atemp.effective.0000000001.data
(PID.TID 0000.0001) EXF_SET_FLD: processing field "climsss",  file: SSS_monthly.labsea1979
(PID.TID 0000.0001) EXF_SET_FLD:   myIter, count0, count1:         7      1      2
(PID.TID 0000.0001) EXF_SET_FLD:   first, changed, fac:   F   F    0.49043715846994540
(PID.TID 0000.0001) EXF_SET_FLD: processing field "uwind",  file: u10m.labsea1979
(PID.TID 0000.0001) EXF_SET_FLD:   myIter, count0, count1:         7      1      2
(PID.TID 0000.0001) EXF_SET_FLD:   first, changed, fac:   F   F    0.49043715846994540
(PID.TID 0000.0001) EXF_SET_FLD: processing field "vwind",  file: v10m.labsea1979
(PID.TID 0000.0001) EXF_SET_FLD:   myIter, count0, count1:         7      1      2
(PID.TID 0000.0001) EXF_SET_FLD:   first, changed, fac:   F   F    0.49043715846994540
(PID.TID 0000.0001) EXF_SET_FLD: processing field "atemp",  file: tair.labsea1979
(PID.TID 0000.0001) EXF_SET_FLD:   myIter, count0, count1:         7      1      2
(PID.TID 0000.0001) EXF_SET_FLD:   first, changed, fac:   F   F    0.49043715846994540
(PID.TID 0000.0001) EXF_SET_FLD: processing field "aqh",  file: qa.labsea1979
(PID.TID 0000.0001) EXF_SET_FLD:   myIter, count0, count1:         7      1      2
(PID.TID 0000.0001) EXF_SET_FLD:   first, changed, fac:   F   F    0.49043715846994540
(PID.TID 0000.0001) EXF_SET_FLD: processing field "precip",  file: prate.labsea1979
(PID.TID 0000.0001) EXF_SET_FLD:   myIter, count0, count1:         7      1      2
(PID.TID 0000.0001) EXF_SET_FLD:   first, changed, fac:   F   F    0.49043715846994540
(PID.TID 0000.0001) EXF_SET_FLD: processing field "swdown",  file: fsh.labsea1979
(PID.TID 0000.0001) EXF_SET_FLD:   myIter, count0, count1:         7      1      2
(PID.TID 0000.0001) EXF_SET_FLD:   first, changed, fac:   F   F    0.49043715846994540
(PID.TID 0000.0001) EXF_SET_FLD: processing field "lwdown",  file: flo.labsea1979
(PID.TID 0000.0001) EXF_SET_FLD:   myIter, count0, count1:         7      1      2
(PID.TID 0000.0001) EXF_SET_FLD:   first, changed, fac:   F   F    0.49043715846994540
DEBUG_STATS_RL:    cg2d_b (SOLVE_FOR_PRESSURE)  min= -7.37985604508148E+03
DEBUG_STATS_RL:    cg2d_b (SOLVE_FOR_PRESSURE)  max=  2.18366607280435E+03
DEBUG_STATS_RL:    cg2d_b (SOLVE_FOR_PRESSURE) mean=  6.18645875268461E-13
DEBUG_STATS_RL:    cg2d_b (SOLVE_FOR_PRESSURE) S.D.=  8.98963545839594E+02
 cg2d: Sum(rhs),rhsMax =   1.34267597040605E-14  1.18778339080378E+00
DEBUG_STATS_RL:    cg2d_x (SOLVE_FOR_PRESSURE)  min= -1.13929441834640E+00
DEBUG_STATS_RL:    cg2d_x (SOLVE_FOR_PRESSURE)  max=  3.20616731162253E+00
DEBUG_STATS_RL:    cg2d_x (SOLVE_FOR_PRESSURE) mean= -4.15672442271453E-02
DEBUG_STATS_RL:    cg2d_x (SOLVE_FOR_PRESSURE) S.D.=  6.51074617232215E-01
(PID.TID 0000.0001)  MDS_READ_FIELD: opening global file: xx_atemp.effective.0000000001.data
(PID.TID 0000.0001) EXF_SET_FLD: processing field "climsss",  file: SSS_monthly.labsea1979
(PID.TID 0000.0001) EXF_SET_FLD:   myIter, count0, count1:         8      1      2
(PID.TID 0000.0001) EXF_SET_FLD:   first, changed, fac:   F   F    0.48907103825136611
(PID.TID 0000.0001) EXF_SET_FLD: processing field "uwind",  file: u10m.labsea1979
(PID.TID 0000.0001) EXF_SET_FLD:   myIter, count0, count1:         8      1      2
(PID.TID 0000.0001) EXF_SET_FLD:   first, changed, fac:   F   F    0.48907103825136611
(PID.TID 0000.0001) EXF_SET_FLD: processing field "vwind",  file: v10m.labsea1979
(PID.TID 0000.0001) EXF_SET_FLD:   myIter, count0, count1:         8      1      2
(PID.TID 0000.0001) EXF_SET_FLD:   first, changed, fac:   F   F    0.48907103825136611
(PID.TID 0000.0001) EXF_SET_FLD: processing field "atemp",  file: tair.labsea1979
(PID.TID 0000.0001) EXF_SET_FLD:   myIter, count0, count1:         8      1      2
(PID.TID 0000.0001) EXF_SET_FLD:   first, changed, fac:   F   F    0.48907103825136611
(PID.TID 0000.0001) EXF_SET_FLD: processing field "aqh",  file: qa.labsea1979
(PID.TID 0000.0001) EXF_SET_FLD:   myIter, count0, count1:         8      1      2
(PID.TID 0000.0001) EXF_SET_FLD:   first, changed, fac:   F   F    0.48907103825136611
(PID.TID 0000.0001) EXF_SET_FLD: processing field "precip",  file: prate.labsea1979
(PID.TID 0000.0001) EXF_SET_FLD:   myIter, count0, count1:         8      1      2
(PID.TID 0000.0001) EXF_SET_FLD:   first, changed, fac:   F   F    0.48907103825136611
(PID.TID 0000.0001) EXF_SET_FLD: processing field "swdown",  file: fsh.labsea1979
(PID.TID 0000.0001) EXF_SET_FLD:   myIter, count0, count1:         8      1      2
(PID.TID 0000.0001) EXF_SET_FLD:   first, changed, fac:   F   F    0.48907103825136611
(PID.TID 0000.0001) EXF_SET_FLD: processing field "lwdown",  file: flo.labsea1979
(PID.TID 0000.0001) EXF_SET_FLD:   myIter, count0, count1:         8      1      2
(PID.TID 0000.0001) EXF_SET_FLD:   first, changed, fac:   F   F    0.48907103825136611
DEBUG_STATS_RL:    cg2d_b (SOLVE_FOR_PRESSURE)  min= -7.29975929937793E+03
DEBUG_STATS_RL:    cg2d_b (SOLVE_FOR_PRESSURE)  max=  2.19478299507054E+03
DEBUG_STATS_RL:    cg2d_b (SOLVE_FOR_PRESSURE) mean= -3.96767063648440E-13
DEBUG_STATS_RL:    cg2d_b (SOLVE_FOR_PRESSURE) S.D.=  8.94146290227710E+02
 cg2d: Sum(rhs),rhsMax =  -6.92501611609941E-15  1.17489186776824E+00
DEBUG_STATS_RL:    cg2d_x (SOLVE_FOR_PRESSURE)  min= -1.08771127617308E+00
DEBUG_STATS_RL:    cg2d_x (SOLVE_FOR_PRESSURE)  max=  3.12128519797376E+00
DEBUG_STATS_RL:    cg2d_x (SOLVE_FOR_PRESSURE) mean= -4.19588396852395E-02
DEBUG_STATS_RL:    cg2d_x (SOLVE_FOR_PRESSURE) S.D.=  6.20262122262901E-01
(PID.TID 0000.0001) Did not write pickup because writePickupAtEnd = FALSE
(PID.TID 0000.0001) Did not write pickup because writePickupAtEnd = FALSE
(PID.TID 0000.0001) S/R ADAUTODIFF_INADMODE_SET: useKPP    =    T
(PID.TID 0000.0001) S/R ADAUTODIFF_INADMODE_SET: useGMRedi =    T
(PID.TID 0000.0001) S/R ADAUTODIFF_INADMODE_SET: useSEAICE =    T
(PID.TID 0000.0001) S/R ADAUTODIFF_INADMODE_SET: useGGL90    =    F
(PID.TID 0000.0001) S/R ADAUTODIFF_INADMODE_SET: useSALT_PLUME    =    F
(PID.TID 0000.0001) S/R ADAUTODIFF_INADMODE_SET: viscFacAdj = 1.00000000000000E+00
(PID.TID 0000.0001) // =======================================================
(PID.TID 0000.0001) // Begin AD_MONITOR dynamic field statistics
(PID.TID 0000.0001) // =======================================================
(PID.TID 0000.0001) %MON ad_time_tsnumber             =                     9
(PID.TID 0000.0001) %MON ad_time_secondsf             =   3.2400000000000E+04
(PID.TID 0000.0001) %MON ad_dynstat_adeta_max         =   0.0000000000000E+00
(PID.TID 0000.0001) %MON ad_dynstat_adeta_min         =   0.0000000000000E+00
(PID.TID 0000.0001) %MON ad_dynstat_adeta_mean        =   0.0000000000000E+00
(PID.TID 0000.0001) %MON ad_dynstat_adeta_sd          =   0.0000000000000E+00
(PID.TID 0000.0001) %MON ad_dynstat_adeta_del2        =   0.0000000000000E+00
(PID.TID 0000.0001) %MON ad_dynstat_aduvel_max        =   0.0000000000000E+00
(PID.TID 0000.0001) %MON ad_dynstat_aduvel_min        =   0.0000000000000E+00
(PID.TID 0000.0001) %MON ad_dynstat_aduvel_mean       =   0.0000000000000E+00
(PID.TID 0000.0001) %MON ad_dynstat_aduvel_sd         =   0.0000000000000E+00
(PID.TID 0000.0001) %MON ad_dynstat_aduvel_del2       =   0.0000000000000E+00
(PID.TID 0000.0001) %MON ad_dynstat_advvel_max        =   0.0000000000000E+00
(PID.TID 0000.0001) %MON ad_dynstat_advvel_min        =   0.0000000000000E+00
(PID.TID 0000.0001) %MON ad_dynstat_advvel_mean       =   0.0000000000000E+00
(PID.TID 0000.0001) %MON ad_dynstat_advvel_sd         =   0.0000000000000E+00
(PID.TID 0000.0001) %MON ad_dynstat_advvel_del2       =   0.0000000000000E+00
(PID.TID 0000.0001) %MON ad_dynstat_adwvel_max        =   0.0000000000000E+00
(PID.TID 0000.0001) %MON ad_dynstat_adwvel_min        =   0.0000000000000E+00
(PID.TID 0000.0001) %MON ad_dynstat_adwvel_mean       =   0.0000000000000E+00
(PID.TID 0000.0001) %MON ad_dynstat_adwvel_sd         =   0.0000000000000E+00
(PID.TID 0000.0001) %MON ad_dynstat_adwvel_del2       =   0.0000000000000E+00
(PID.TID 0000.0001) %MON ad_dynstat_adtheta_max       =   0.0000000000000E+00
(PID.TID 0000.0001) %MON ad_dynstat_adtheta_min       =  -1.4831956427884E+01
(PID.TID 0000.0001) %MON ad_dynstat_adtheta_mean      =  -7.9207547889324E-02
(PID.TID 0000.0001) %MON ad_dynstat_adtheta_sd        =   9.9109060834395E-01
(PID.TID 0000.0001) %MON ad_dynstat_adtheta_del2      =   5.4202014232597E-03
(PID.TID 0000.0001) %MON ad_dynstat_adsalt_max        =   0.0000000000000E+00
(PID.TID 0000.0001) %MON ad_dynstat_adsalt_min        =   0.0000000000000E+00
(PID.TID 0000.0001) %MON ad_dynstat_adsalt_mean       =   0.0000000000000E+00
(PID.TID 0000.0001) %MON ad_dynstat_adsalt_sd         =   0.0000000000000E+00
(PID.TID 0000.0001) %MON ad_dynstat_adsalt_del2       =   0.0000000000000E+00
(PID.TID 0000.0001) %MON ad_dynstat_adsst_max         =  -5.3191867672406E+00
(PID.TID 0000.0001) %MON ad_dynstat_adsst_min         =  -1.4831956427884E+01
(PID.TID 0000.0001) %MON ad_dynstat_adsst_mean        =  -1.1791813002433E+01
(PID.TID 0000.0001) %MON ad_dynstat_adsst_sd          =   2.8493121714474E+00
(PID.TID 0000.0001) %MON ad_dynstat_adsst_del2        =   6.7210497648420E-02
(PID.TID 0000.0001) %MON ad_dynstat_adsss_max         =   0.0000000000000E+00
(PID.TID 0000.0001) %MON ad_dynstat_adsss_min         =   0.0000000000000E+00
(PID.TID 0000.0001) %MON ad_dynstat_adsss_mean        =   0.0000000000000E+00
(PID.TID 0000.0001) %MON ad_dynstat_adsss_sd          =   0.0000000000000E+00
(PID.TID 0000.0001) %MON ad_dynstat_adsss_del2        =   0.0000000000000E+00
(PID.TID 0000.0001) // =======================================================
(PID.TID 0000.0001) // End AD_MONITOR dynamic field statistics
(PID.TID 0000.0001) // =======================================================
(PID.TID 0000.0001) // =======================================================
(PID.TID 0000.0001) // Begin AD_MONITOR SEAICE statistics
(PID.TID 0000.0001) // =======================================================
(PID.TID 0000.0001) %MON ad_seaice_tsnumber           =                     9
(PID.TID 0000.0001) %MON ad_seaice_time_sec           =   3.2400000000000E+04
(PID.TID 0000.0001) %MON ad_seaice_aduice_max         =   0.0000000000000E+00
(PID.TID 0000.0001) %MON ad_seaice_aduice_min         =   0.0000000000000E+00
(PID.TID 0000.0001) %MON ad_seaice_aduice_mean        =   0.0000000000000E+00
(PID.TID 0000.0001) %MON ad_seaice_aduice_sd          =   0.0000000000000E+00
(PID.TID 0000.0001) %MON ad_seaice_aduice_del2        =   0.0000000000000E+00
(PID.TID 0000.0001) %MON ad_seaice_advice_max         =   0.0000000000000E+00
(PID.TID 0000.0001) %MON ad_seaice_advice_min         =   0.0000000000000E+00
(PID.TID 0000.0001) %MON ad_seaice_advice_mean        =   0.0000000000000E+00
(PID.TID 0000.0001) %MON ad_seaice_advice_sd          =   0.0000000000000E+00
(PID.TID 0000.0001) %MON ad_seaice_advice_del2        =   0.0000000000000E+00
(PID.TID 0000.0001) %MON ad_seaice_adarea_max         =   0.0000000000000E+00
(PID.TID 0000.0001) %MON ad_seaice_adarea_min         =   0.0000000000000E+00
(PID.TID 0000.0001) %MON ad_seaice_adarea_mean        =   0.0000000000000E+00
(PID.TID 0000.0001) %MON ad_seaice_adarea_sd          =   0.0000000000000E+00
(PID.TID 0000.0001) %MON ad_seaice_adarea_del2        =   0.0000000000000E+00
(PID.TID 0000.0001) %MON ad_seaice_adheff_max         =   0.0000000000000E+00
(PID.TID 0000.0001) %MON ad_seaice_adheff_min         =   0.0000000000000E+00
(PID.TID 0000.0001) %MON ad_seaice_adheff_mean        =   0.0000000000000E+00
(PID.TID 0000.0001) %MON ad_seaice_adheff_sd          =   0.0000000000000E+00
(PID.TID 0000.0001) %MON ad_seaice_adheff_del2        =   0.0000000000000E+00
(PID.TID 0000.0001) %MON ad_seaice_adhsnow_max        =   0.0000000000000E+00
(PID.TID 0000.0001) %MON ad_seaice_adhsnow_min        =   0.0000000000000E+00
(PID.TID 0000.0001) %MON ad_seaice_adhsnow_mean       =   0.0000000000000E+00
(PID.TID 0000.0001) %MON ad_seaice_adhsnow_sd         =   0.0000000000000E+00
(PID.TID 0000.0001) %MON ad_seaice_adhsnow_del2       =   0.0000000000000E+00
(PID.TID 0000.0001) %MON ad_seaice_adhsalt_max        =   0.0000000000000E+00
(PID.TID 0000.0001) %MON ad_seaice_adhsalt_min        =   0.0000000000000E+00
(PID.TID 0000.0001) %MON ad_seaice_adhsalt_mean       =   0.0000000000000E+00
(PID.TID 0000.0001) %MON ad_seaice_adhsalt_sd         =   0.0000000000000E+00
(PID.TID 0000.0001) %MON ad_seaice_adhsalt_del2       =   0.0000000000000E+00
(PID.TID 0000.0001) // =======================================================
(PID.TID 0000.0001) // End AD_MONITOR SEAICE statistics
(PID.TID 0000.0001) // =======================================================
(PID.TID 0000.0001)  MDS_WRITE_FIELD: it,rec,kS,kL,kH=       9     1   1   1   1 file=ADJetan.0000000009
 Calling cg2d from S/R CG2D_MAD
 cg2d: Sum(rhs),rhsMax =   2.55438031837585E-16  2.54736718426401E-03
(PID.TID 0000.0001)       CG2D_MAD cg2d_init_res =   2.54036574095524E+00
(PID.TID 0000.0001)      CG2D_MAD: cg2d_iters(min,last) =      -1      45
(PID.TID 0000.0001)      CG2D_MAD: cg2d_last_res =   8.77363466896069E-14
(PID.TID 0000.0001)  MDS_WRITE_FIELD: it,rec,kS,kL,kH=       8     1   1   1   1 file=ADJtaux.0000000008
(PID.TID 0000.0001)  MDS_WRITE_FIELD: it,rec,kS,kL,kH=       8     1   1   1   1 file=ADJtauy.0000000008
(PID.TID 0000.0001)  MDS_WRITE_FIELD: it,rec,kS,kL,kH=       8     1   1   1   1 file=ADJqnet.0000000008
(PID.TID 0000.0001)  MDS_WRITE_FIELD: it,rec,kS,kL,kH=       8     1   1   1   1 file=ADJempr.0000000008
(PID.TID 0000.0001)  MDS_WRITE_FIELD: it,rec,kS,kL,kH=       8     1   1   1   1 file=ADJqsw.0000000008
(PID.TID 0000.0001)  MDS_WRITE_FIELD: it,rec,kS,kL,kH=       8     1  23   1  23 file=ADJtheta.0000000008
(PID.TID 0000.0001)  MDS_WRITE_FIELD: it,rec,kS,kL,kH=       8     1  23   1  23 file=ADJsalt.0000000008
(PID.TID 0000.0001)  MDS_WRITE_FIELD: it,rec,kS,kL,kH=       8     1  23   1  23 file=ADJwvel.0000000008
(PID.TID 0000.0001)  MDS_WRITE_FIELD: it,rec,kS,kL,kH=       8     1  23   1  23 file=ADJuvel.0000000008
(PID.TID 0000.0001)  MDS_WRITE_FIELD: it,rec,kS,kL,kH=       8     1  23   1  23 file=ADJvvel.0000000008
(PID.TID 0000.0001)  MDS_WRITE_FIELD: it,rec,kS,kL,kH=       8     1   1   1   1 file=ADJarea.0000000008
(PID.TID 0000.0001)  MDS_WRITE_FIELD: it,rec,kS,kL,kH=       8     1   1   1   1 file=ADJheff.0000000008
(PID.TID 0000.0001)  MDS_WRITE_FIELD: it,rec,kS,kL,kH=       8     1   1   1   1 file=ADJhsnow.0000000008
(PID.TID 0000.0001)  MDS_WRITE_FIELD: it,rec,kS,kL,kH=       8     1   1   1   1 file=ADJuice.0000000008
(PID.TID 0000.0001)  MDS_WRITE_FIELD: it,rec,kS,kL,kH=       8     1   1   1   1 file=ADJvice.0000000008
(PID.TID 0000.0001)  MDS_WRITE_FIELD: it,rec,kS,kL,kH=       8     1   1   1   1 file=ADJustress.0000000008
(PID.TID 0000.0001)  MDS_WRITE_FIELD: it,rec,kS,kL,kH=       8     1   1   1   1 file=ADJvstress.0000000008
(PID.TID 0000.0001)  MDS_WRITE_FIELD: it,rec,kS,kL,kH=       8     1   1   1   1 file=ADJhflux.0000000008
(PID.TID 0000.0001)  MDS_WRITE_FIELD: it,rec,kS,kL,kH=       8     1   1   1   1 file=ADJsflux.0000000008
(PID.TID 0000.0001)  MDS_WRITE_FIELD: it,rec,kS,kL,kH=       8     1   1   1   1 file=ADJatemp.0000000008
(PID.TID 0000.0001)  MDS_WRITE_FIELD: it,rec,kS,kL,kH=       8     1   1   1   1 file=ADJaqh.0000000008
(PID.TID 0000.0001)  MDS_WRITE_FIELD: it,rec,kS,kL,kH=       8     1   1   1   1 file=ADJprecip.0000000008
(PID.TID 0000.0001)  MDS_WRITE_FIELD: it,rec,kS,kL,kH=       8     1   1   1   1 file=ADJrunoff.0000000008
(PID.TID 0000.0001)  MDS_WRITE_FIELD: it,rec,kS,kL,kH=       8     1   1   1   1 file=ADJuwind.0000000008
(PID.TID 0000.0001)  MDS_WRITE_FIELD: it,rec,kS,kL,kH=       8     1   1   1   1 file=ADJvwind.0000000008
(PID.TID 0000.0001)  MDS_WRITE_FIELD: it,rec,kS,kL,kH=       8     1   1   1   1 file=ADJswdown.0000000008
(PID.TID 0000.0001)  MDS_WRITE_FIELD: it,rec,kS,kL,kH=       8     1   1   1   1 file=ADJlwdown.0000000008
(PID.TID 0000.0001)  MDS_WRITE_FIELD: it,rec,kS,kL,kH=       8     1   1   1   1 file=ADJclimsst.0000000008
(PID.TID 0000.0001)  MDS_WRITE_FIELD: it,rec,kS,kL,kH=       8     1   1   1   1 file=ADJclimsss.0000000008
(PID.TID 0000.0001)  MDS_READ_FIELD: opening global file: adxx_atemp.effective.0000000001.data
(PID.TID 0000.0001)  MDS_WRITE_FIELD: it,rec,kS,kL,kH=       1    -5  23   1   1 file=adxx_atemp.effective.0000000001
(PID.TID 0000.0001) S/R ADAUTODIFF_INADMODE_UNSET: useKPP    =    T
(PID.TID 0000.0001) S/R ADAUTODIFF_INADMODE_UNSET: useGMRedi =    T
(PID.TID 0000.0001) S/R ADAUTODIFF_INADMODE_UNSET: useSEAICE =    T
(PID.TID 0000.0001) S/R ADAUTODIFF_INADMODE_UNSET: useGGL90    =    F
(PID.TID 0000.0001) S/R ADAUTODIFF_INADMODE_UNSET: useSALT_PLUME    =    F
(PID.TID 0000.0001) S/R ADAUTODIFF_INADMODE_UNSET: viscFacAdj = 1.00000000000000E+00
(PID.TID 0000.0001)  MDS_READ_FIELD: opening global file: adm_sst_step.0000000001.data
(PID.TID 0000.0001)  MDS_WRITE_FIELD: it,rec,kS,kL,kH=       1    -4  23   1   1 file=adm_sst_step.0000000001
(PID.TID 0000.0001) S/R ADAUTODIFF_INADMODE_SET: useKPP    =    T
(PID.TID 0000.0001) S/R ADAUTODIFF_INADMODE_SET: useGMRedi =    T
(PID.TID 0000.0001) S/R ADAUTODIFF_INADMODE_SET: useSEAICE =    T
(PID.TID 0000.0001) S/R ADAUTODIFF_INADMODE_SET: useGGL90    =    F
(PID.TID 0000.0001) S/R ADAUTODIFF_INADMODE_SET: useSALT_PLUME    =    F
(PID.TID 0000.0001) S/R ADAUTODIFF_INADMODE_SET: viscFacAdj = 1.00000000000000E+00
(PID.TID 0000.0001) // =======================================================
(PID.TID 0000.0001) // Begin AD_MONITOR dynamic field statistics
(PID.TID 0000.0001) // =======================================================
(PID.TID 0000.0001) %MON ad_time_tsnumber             =                     8
(PID.TID 0000.0001) %MON ad_time_secondsf             =   2.8800000000000E+04
(PID.TID 0000.0001) %MON ad_dynstat_adeta_max         =   3.9319378702208E+00
(PID.TID 0000.0001) %MON ad_dynstat_adeta_min         =  -5.3268520475845E+00
(PID.TID 0000.0001) %MON ad_dynstat_adeta_mean        =  -3.4594527363007E-02
(PID.TID 0000.0001) %MON ad_dynstat_adeta_sd          =   1.4268635417484E+00
(PID.TID 0000.0001) %MON ad_dynstat_adeta_del2        =   1.8136427446432E-01
(PID.TID 0000.0001) %MON ad_dynstat_aduvel_max        =   1.0245130933961E+00
(PID.TID 0000.0001) %MON ad_dynstat_aduvel_min        =  -2.4730533944482E+00
(PID.TID 0000.0001) %MON ad_dynstat_aduvel_mean       =  -4.2485749104333E-01
(PID.TID 0000.0001) %MON ad_dynstat_aduvel_sd         =   5.6258366699306E-01
(PID.TID 0000.0001) %MON ad_dynstat_aduvel_del2       =   8.0257579616455E-03
(PID.TID 0000.0001) %MON ad_dynstat_advvel_max        =   1.5476486579253E+00
(PID.TID 0000.0001) %MON ad_dynstat_advvel_min        =  -2.6028413192668E+00
(PID.TID 0000.0001) %MON ad_dynstat_advvel_mean       =  -6.7159323776223E-01
(PID.TID 0000.0001) %MON ad_dynstat_advvel_sd         =   8.8884713491889E-01
(PID.TID 0000.0001) %MON ad_dynstat_advvel_del2       =   6.8009888803287E-03
(PID.TID 0000.0001) %MON ad_dynstat_adwvel_max        =   2.4544885862422E+01
(PID.TID 0000.0001) %MON ad_dynstat_adwvel_min        =  -1.9496845856961E+01
(PID.TID 0000.0001) %MON ad_dynstat_adwvel_mean       =  -1.0936413634462E-02
(PID.TID 0000.0001) %MON ad_dynstat_adwvel_sd         =   6.9493393608811E-01
(PID.TID 0000.0001) %MON ad_dynstat_adwvel_del2       =   9.6916172742865E-02
(PID.TID 0000.0001) %MON ad_dynstat_adtheta_max       =   1.2292860490093E-01
(PID.TID 0000.0001) %MON ad_dynstat_adtheta_min       =  -1.4801106951400E+01
(PID.TID 0000.0001) %MON ad_dynstat_adtheta_mean      =  -4.2103367028465E-02
(PID.TID 0000.0001) %MON ad_dynstat_adtheta_sd        =   7.2640628320547E-01
(PID.TID 0000.0001) %MON ad_dynstat_adtheta_del2      =   3.0628359826988E-02
(PID.TID 0000.0001) %MON ad_dynstat_adsalt_max        =   5.1175243504601E-01
(PID.TID 0000.0001) %MON ad_dynstat_adsalt_min        =  -7.3678722677771E-01
(PID.TID 0000.0001) %MON ad_dynstat_adsalt_mean       =  -5.6827506835852E-03
(PID.TID 0000.0001) %MON ad_dynstat_adsalt_sd         =   2.2391944417904E-01
(PID.TID 0000.0001) %MON ad_dynstat_adsalt_del2       =   5.2095641501725E-03
(PID.TID 0000.0001) %MON ad_dynstat_adsst_max         =  -1.6044740579801E-01
(PID.TID 0000.0001) %MON ad_dynstat_adsst_min         =  -1.4801106951400E+01
(PID.TID 0000.0001) %MON ad_dynstat_adsst_mean        =  -6.4415071374038E+00
(PID.TID 0000.0001) %MON ad_dynstat_adsst_sd          =   6.0912039269572E+00
(PID.TID 0000.0001) %MON ad_dynstat_adsst_del2        =   3.7964546608005E-01
(PID.TID 0000.0001) %MON ad_dynstat_adsss_max         =   2.5871924873692E-02
(PID.TID 0000.0001) %MON ad_dynstat_adsss_min         =  -4.9492950878936E-02
(PID.TID 0000.0001) %MON ad_dynstat_adsss_mean        =  -2.8106720013858E-03
(PID.TID 0000.0001) %MON ad_dynstat_adsss_sd          =   1.1166835165226E-02
(PID.TID 0000.0001) %MON ad_dynstat_adsss_del2        =   1.6065461241750E-03
(PID.TID 0000.0001) // =======================================================
(PID.TID 0000.0001) // End AD_MONITOR dynamic field statistics
(PID.TID 0000.0001) // =======================================================
(PID.TID 0000.0001) // =======================================================
(PID.TID 0000.0001) // Begin AD_MONITOR SEAICE statistics
(PID.TID 0000.0001) // =======================================================
(PID.TID 0000.0001) %MON ad_seaice_tsnumber           =                     8
(PID.TID 0000.0001) %MON ad_seaice_time_sec           =   2.8800000000000E+04
(PID.TID 0000.0001) %MON ad_seaice_aduice_max         =   9.3565889326842E+01
(PID.TID 0000.0001) %MON ad_seaice_aduice_min         =  -9.5493610389648E+01
(PID.TID 0000.0001) %MON ad_seaice_aduice_mean        =  -1.9365278177154E-03
(PID.TID 0000.0001) %MON ad_seaice_aduice_sd          =   1.3045957026192E+01
(PID.TID 0000.0001) %MON ad_seaice_aduice_del2        =   3.8255351709809E+00
(PID.TID 0000.0001) %MON ad_seaice_advice_max         =   1.4802558392119E+02
(PID.TID 0000.0001) %MON ad_seaice_advice_min         =  -1.5437832250910E+02
(PID.TID 0000.0001) %MON ad_seaice_advice_mean        =   2.6358987673275E-03
(PID.TID 0000.0001) %MON ad_seaice_advice_sd          =   2.1325329485331E+01
(PID.TID 0000.0001) %MON ad_seaice_advice_del2        =   6.4710590883638E+00
(PID.TID 0000.0001) %MON ad_seaice_adarea_max         =   9.8878638120004E+00
(PID.TID 0000.0001) %MON ad_seaice_adarea_min         =  -1.4859718783451E+01
(PID.TID 0000.0001) %MON ad_seaice_adarea_mean        =  -1.4354055247801E-01
(PID.TID 0000.0001) %MON ad_seaice_adarea_sd          =   1.5910263742921E+00
(PID.TID 0000.0001) %MON ad_seaice_adarea_del2        =   4.6610591701509E-01
(PID.TID 0000.0001) %MON ad_seaice_adheff_max         =   1.1717965772727E+02
(PID.TID 0000.0001) %MON ad_seaice_adheff_min         =  -4.4699806315067E+00
(PID.TID 0000.0001) %MON ad_seaice_adheff_mean        =   4.1315499508599E+01
(PID.TID 0000.0001) %MON ad_seaice_adheff_sd          =   5.4402833116693E+01
(PID.TID 0000.0001) %MON ad_seaice_adheff_del2        =   3.4197950022536E+00
(PID.TID 0000.0001) %MON ad_seaice_adhsnow_max        =   4.2493722032964E+01
(PID.TID 0000.0001) %MON ad_seaice_adhsnow_min        =  -2.0223007157875E-07
(PID.TID 0000.0001) %MON ad_seaice_adhsnow_mean       =   1.4974045266352E+01
(PID.TID 0000.0001) %MON ad_seaice_adhsnow_sd         =   1.9708072567887E+01
(PID.TID 0000.0001) %MON ad_seaice_adhsnow_del2       =   1.2314977944623E+00
(PID.TID 0000.0001) %MON ad_seaice_adhsalt_max        =   0.0000000000000E+00
(PID.TID 0000.0001) %MON ad_seaice_adhsalt_min        =  -3.8941366319598E-04
(PID.TID 0000.0001) %MON ad_seaice_adhsalt_mean       =  -7.4339622421178E-05
(PID.TID 0000.0001) %MON ad_seaice_adhsalt_sd         =   1.0611211989938E-04
(PID.TID 0000.0001) %MON ad_seaice_adhsalt_del2       =   6.5789369900146E-06
(PID.TID 0000.0001) // =======================================================
(PID.TID 0000.0001) // End AD_MONITOR SEAICE statistics
(PID.TID 0000.0001) // =======================================================
(PID.TID 0000.0001)  MDS_WRITE_FIELD: it,rec,kS,kL,kH=       8     1   1   1   1 file=ADJetan.0000000008
 Calling cg2d from S/R CG2D_MAD
 cg2d: Sum(rhs),rhsMax =   6.49870782187811E-16  3.73062177897705E-03
(PID.TID 0000.0001)       CG2D_MAD cg2d_init_res =   2.66635493728303E+00
(PID.TID 0000.0001)      CG2D_MAD: cg2d_iters(min,last) =      -1      46
(PID.TID 0000.0001)      CG2D_MAD: cg2d_last_res =   5.32326219256547E-14
(PID.TID 0000.0001)  MDS_WRITE_FIELD: it,rec,kS,kL,kH=       7     1   1   1   1 file=ADJtaux.0000000007
(PID.TID 0000.0001)  MDS_WRITE_FIELD: it,rec,kS,kL,kH=       7     1   1   1   1 file=ADJtauy.0000000007
(PID.TID 0000.0001)  MDS_WRITE_FIELD: it,rec,kS,kL,kH=       7     1   1   1   1 file=ADJqnet.0000000007
(PID.TID 0000.0001)  MDS_WRITE_FIELD: it,rec,kS,kL,kH=       7     1   1   1   1 file=ADJempr.0000000007
(PID.TID 0000.0001)  MDS_WRITE_FIELD: it,rec,kS,kL,kH=       7     1   1   1   1 file=ADJqsw.0000000007
(PID.TID 0000.0001)  MDS_WRITE_FIELD: it,rec,kS,kL,kH=       7     1  23   1  23 file=ADJtheta.0000000007
(PID.TID 0000.0001)  MDS_WRITE_FIELD: it,rec,kS,kL,kH=       7     1  23   1  23 file=ADJsalt.0000000007
(PID.TID 0000.0001)  MDS_WRITE_FIELD: it,rec,kS,kL,kH=       7     1  23   1  23 file=ADJwvel.0000000007
(PID.TID 0000.0001)  MDS_WRITE_FIELD: it,rec,kS,kL,kH=       7     1  23   1  23 file=ADJuvel.0000000007
(PID.TID 0000.0001)  MDS_WRITE_FIELD: it,rec,kS,kL,kH=       7     1  23   1  23 file=ADJvvel.0000000007
(PID.TID 0000.0001)  MDS_WRITE_FIELD: it,rec,kS,kL,kH=       7     1   1   1   1 file=ADJarea.0000000007
(PID.TID 0000.0001)  MDS_WRITE_FIELD: it,rec,kS,kL,kH=       7     1   1   1   1 file=ADJheff.0000000007
(PID.TID 0000.0001)  MDS_WRITE_FIELD: it,rec,kS,kL,kH=       7     1   1   1   1 file=ADJhsnow.0000000007
(PID.TID 0000.0001)  MDS_WRITE_FIELD: it,rec,kS,kL,kH=       7     1   1   1   1 file=ADJuice.0000000007
(PID.TID 0000.0001)  MDS_WRITE_FIELD: it,rec,kS,kL,kH=       7     1   1   1   1 file=ADJvice.0000000007
(PID.TID 0000.0001)  MDS_WRITE_FIELD: it,rec,kS,kL,kH=       7     1   1   1   1 file=ADJustress.0000000007
(PID.TID 0000.0001)  MDS_WRITE_FIELD: it,rec,kS,kL,kH=       7     1   1   1   1 file=ADJvstress.0000000007
(PID.TID 0000.0001)  MDS_WRITE_FIELD: it,rec,kS,kL,kH=       7     1   1   1   1 file=ADJhflux.0000000007
(PID.TID 0000.0001)  MDS_WRITE_FIELD: it,rec,kS,kL,kH=       7     1   1   1   1 file=ADJsflux.0000000007
(PID.TID 0000.0001)  MDS_WRITE_FIELD: it,rec,kS,kL,kH=       7     1   1   1   1 file=ADJatemp.0000000007
(PID.TID 0000.0001)  MDS_WRITE_FIELD: it,rec,kS,kL,kH=       7     1   1   1   1 file=ADJaqh.0000000007
(PID.TID 0000.0001)  MDS_WRITE_FIELD: it,rec,kS,kL,kH=       7     1   1   1   1 file=ADJprecip.0000000007
(PID.TID 0000.0001)  MDS_WRITE_FIELD: it,rec,kS,kL,kH=       7     1   1   1   1 file=ADJrunoff.0000000007
(PID.TID 0000.0001)  MDS_WRITE_FIELD: it,rec,kS,kL,kH=       7     1   1   1   1 file=ADJuwind.0000000007
(PID.TID 0000.0001)  MDS_WRITE_FIELD: it,rec,kS,kL,kH=       7     1   1   1   1 file=ADJvwind.0000000007
(PID.TID 0000.0001)  MDS_WRITE_FIELD: it,rec,kS,kL,kH=       7     1   1   1   1 file=ADJswdown.0000000007
(PID.TID 0000.0001)  MDS_WRITE_FIELD: it,rec,kS,kL,kH=       7     1   1   1   1 file=ADJlwdown.0000000007
(PID.TID 0000.0001)  MDS_WRITE_FIELD: it,rec,kS,kL,kH=       7     1   1   1   1 file=ADJclimsst.0000000007
(PID.TID 0000.0001)  MDS_WRITE_FIELD: it,rec,kS,kL,kH=       7     1   1   1   1 file=ADJclimsss.0000000007
(PID.TID 0000.0001)  MDS_READ_FIELD: opening global file: adxx_atemp.effective.0000000001.data
(PID.TID 0000.0001)  MDS_WRITE_FIELD: it,rec,kS,kL,kH=       1    -4  23   1   1 file=adxx_atemp.effective.0000000001
(PID.TID 0000.0001) S/R ADAUTODIFF_INADMODE_UNSET: useKPP    =    T
(PID.TID 0000.0001) S/R ADAUTODIFF_INADMODE_UNSET: useGMRedi =    T
(PID.TID 0000.0001) S/R ADAUTODIFF_INADMODE_UNSET: useSEAICE =    T
(PID.TID 0000.0001) S/R ADAUTODIFF_INADMODE_UNSET: useGGL90    =    F
(PID.TID 0000.0001) S/R ADAUTODIFF_INADMODE_UNSET: useSALT_PLUME    =    F
(PID.TID 0000.0001) S/R ADAUTODIFF_INADMODE_UNSET: viscFacAdj = 1.00000000000000E+00
(PID.TID 0000.0001)  MDS_READ_FIELD: opening global file: adm_sst_step.0000000001.data
(PID.TID 0000.0001)  MDS_WRITE_FIELD: it,rec,kS,kL,kH=       1    -3  23   1   1 file=adm_sst_step.0000000001
(PID.TID 0000.0001) ADREAD:  tid,vid, irec, length, prec(x2)=    41     1     1      672  8 64 fname=tapelev2_1_the_main_loop_etan
(PID.TID 0000.0001) ADREAD:  tid,vid, irec, length, prec(x2)=    41     2     1      672  8 64 fname=tapelev2_2_the_main_loop_taux0
(PID.TID 0000.0001) ADREAD:  tid,vid, irec, length, prec(x2)=    41     3     1      672  8 64 fname=tapelev2_3_the_main_loop_taux1
(PID.TID 0000.0001) ADREAD:  tid,vid, irec, length, prec(x2)=    41     4     1      672  8 64 fname=tapelev2_4_the_main_loop_tauy0
(PID.TID 0000.0001) ADREAD:  tid,vid, irec, length, prec(x2)=    41     5     1      672  8 64 fname=tapelev2_5_the_main_loop_tauy1
(PID.TID 0000.0001) ADREAD:  tid,vid, irec, length, prec(x2)=    41     6     1      672  8 64 fname=tapelev2_6_the_main_loop_qnet0
(PID.TID 0000.0001) ADREAD:  tid,vid, irec, length, prec(x2)=    41     7     1      672  8 64 fname=tapelev2_7_the_main_loop_qnet1
(PID.TID 0000.0001) ADREAD:  tid,vid, irec, length, prec(x2)=    41     8     1      672  8 64 fname=tapelev2_8_the_main_loop_empmr0
(PID.TID 0000.0001) ADREAD:  tid,vid, irec, length, prec(x2)=    41     9     1      672  8 64 fname=tapelev2_9_the_main_loop_empmr1
(PID.TID 0000.0001) ADREAD:  tid,vid, irec, length, prec(x2)=    41    10     1      672  8 64 fname=tapelev2_10_the_main_loop_sst0
(PID.TID 0000.0001) ADREAD:  tid,vid, irec, length, prec(x2)=    41    11     1      672  8 64 fname=tapelev2_11_the_main_loop_sst1
(PID.TID 0000.0001) ADREAD:  tid,vid, irec, length, prec(x2)=    41    12     1      672  8 64 fname=tapelev2_12_the_main_loop_sss0
(PID.TID 0000.0001) ADREAD:  tid,vid, irec, length, prec(x2)=    41    13     1      672  8 64 fname=tapelev2_13_the_main_loop_sss1
(PID.TID 0000.0001) ADREAD:  tid,vid, irec, length, prec(x2)=    41    14     1      672  8 64 fname=tapelev2_14_the_main_loop_saltflux0
(PID.TID 0000.0001) ADREAD:  tid,vid, irec, length, prec(x2)=    41    15     1      672  8 64 fname=tapelev2_15_the_main_loop_saltflux1
(PID.TID 0000.0001) ADREAD:  tid,vid, irec, length, prec(x2)=    41    16     1      672  8 64 fname=tapelev2_16_the_main_loop_qsw0
(PID.TID 0000.0001) ADREAD:  tid,vid, irec, length, prec(x2)=    41    17     1      672  8 64 fname=tapelev2_17_the_main_loop_qsw1
(PID.TID 0000.0001) ADREAD:  tid,vid, irec, length, prec(x2)=    41    18     1      672  8 64 fname=tapelev2_18_the_main_loop_pload0
(PID.TID 0000.0001) ADREAD:  tid,vid, irec, length, prec(x2)=    41    19     1      672  8 64 fname=tapelev2_19_the_main_loop_pload1
(PID.TID 0000.0001) ADREAD:  tid,vid, irec, length, prec(x2)=    41    20     1      672  8 64 fname=tapelev2_20_the_main_loop_etah
(PID.TID 0000.0001) ADREAD:  tid,vid, irec, length, prec(x2)=    41    21     1      672  8 64 fname=tapelev2_21_the_main_loop_detahdt
(PID.TID 0000.0001) ADREAD:  tid,vid, irec, length, prec(x2)=    41    22     1      672  8 64 fname=tapelev2_22_the_main_loop_pmepr
(PID.TID 0000.0001) ADREAD:  tid,vid, irec, length, prec(x2)=    41    23     1    15456  8 64 fname=tapelev2_23_the_main_loop_gtnm1
(PID.TID 0000.0001) ADREAD:  tid,vid, irec, length, prec(x2)=    41    24     1    15456  8 64 fname=tapelev2_24_the_main_loop_gsnm1
(PID.TID 0000.0001) ADREAD:  tid,vid, irec, length, prec(x2)=    41    25     1    15456  8 64 fname=tapelev2_25_the_main_loop_gunm1
(PID.TID 0000.0001) ADREAD:  tid,vid, irec, length, prec(x2)=    41    26     1    15456  8 64 fname=tapelev2_26_the_main_loop_gvnm1
(PID.TID 0000.0001) ADREAD:  tid,vid, irec, length, prec(x2)=    41    27     1    15456  8 64 fname=tapelev2_27_the_main_loop_theta
(PID.TID 0000.0001) ADREAD:  tid,vid, irec, length, prec(x2)=    41    28     1    15456  8 64 fname=tapelev2_28_the_main_loop_salt
(PID.TID 0000.0001) ADREAD:  tid,vid, irec, length, prec(x2)=    41    29     1    15456  8 64 fname=tapelev2_29_the_main_loop_uvel
(PID.TID 0000.0001) ADREAD:  tid,vid, irec, length, prec(x2)=    41    30     1    15456  8 64 fname=tapelev2_30_the_main_loop_vvel
(PID.TID 0000.0001) ADREAD:  tid,vid, irec, length, prec(x2)=    41    31     1    15456  8 64 fname=tapelev2_31_the_main_loop_wvel
(PID.TID 0000.0001) ADREAD:  tid,vid, irec, length, prec(x2)=    41    32     1    15456  8 64 fname=tapelev2_32_the_main_loop_totphihyd
(PID.TID 0000.0001) ADREAD:  tid,vid, irec, length, prec(x2)=    41    35     1    15456  8 64 fname=tapelev2_35_the_main_loop_uveld
(PID.TID 0000.0001) ADREAD:  tid,vid, irec, length, prec(x2)=    41    36     1    15456  8 64 fname=tapelev2_36_the_main_loop_vveld
(PID.TID 0000.0001) ADREAD:  tid,vid, irec, length, prec(x2)=    41    37     1      672  8 64 fname=tapelev2_37_the_main_loop_etanm1
(PID.TID 0000.0001) ADREAD:  tid,vid, irec, length, prec(x2)=    41    38     1    15456  8 64 fname=tapelev2_38_the_main_loop_unm1
(PID.TID 0000.0001) ADREAD:  tid,vid, irec, length, prec(x2)=    41    39     1    15456  8 64 fname=tapelev2_39_the_main_loop_vnm1
(PID.TID 0000.0001) ADREAD:  tid,vid, irec, length, prec(x2)=    41    40     1      672  8 64 fname=tapelev2_40_the_main_loop_areamask0
(PID.TID 0000.0001) ADREAD:  tid,vid, irec, length, prec(x2)=    41    41     1      672  8 64 fname=tapelev2_41_the_main_loop_areamask1
(PID.TID 0000.0001) ADREAD:  tid,vid, irec, length, prec(x2)=    41    42     1      672  8 64 fname=tapelev2_42_the_main_loop_hflux0
(PID.TID 0000.0001) ADREAD:  tid,vid, irec, length, prec(x2)=    41    43     1      672  8 64 fname=tapelev2_43_the_main_loop_hflux1
(PID.TID 0000.0001) ADREAD:  tid,vid, irec, length, prec(x2)=    41    44     1      672  8 64 fname=tapelev2_44_the_main_loop_sflux0
(PID.TID 0000.0001) ADREAD:  tid,vid, irec, length, prec(x2)=    41    45     1      672  8 64 fname=tapelev2_45_the_main_loop_sflux1
(PID.TID 0000.0001) ADREAD:  tid,vid, irec, length, prec(x2)=    41    46     1      672  8 64 fname=tapelev2_46_the_main_loop_ustress0
(PID.TID 0000.0001) ADREAD:  tid,vid, irec, length, prec(x2)=    41    47     1      672  8 64 fname=tapelev2_47_the_main_loop_ustress1
(PID.TID 0000.0001) ADREAD:  tid,vid, irec, length, prec(x2)=    41    48     1      672  8 64 fname=tapelev2_48_the_main_loop_vstress0
(PID.TID 0000.0001) ADREAD:  tid,vid, irec, length, prec(x2)=    41    49     1      672  8 64 fname=tapelev2_49_the_main_loop_vstress1
(PID.TID 0000.0001) ADREAD:  tid,vid, irec, length, prec(x2)=    41    50     1      672  8 64 fname=tapelev2_50_the_main_loop_wspeed0
(PID.TID 0000.0001) ADREAD:  tid,vid, irec, length, prec(x2)=    41    51     1      672  8 64 fname=tapelev2_51_the_main_loop_wspeed1
(PID.TID 0000.0001) ADREAD:  tid,vid, irec, length, prec(x2)=    41    54     1      672  8 64 fname=tapelev2_54_the_main_loop_runoff0
(PID.TID 0000.0001) ADREAD:  tid,vid, irec, length, prec(x2)=    41    55     1      672  8 64 fname=tapelev2_55_the_main_loop_runoff1
(PID.TID 0000.0001) ADREAD:  tid,vid, irec, length, prec(x2)=    41    56     1      672  8 64 fname=tapelev2_56_the_main_loop_apressure0
(PID.TID 0000.0001) ADREAD:  tid,vid, irec, length, prec(x2)=    41    57     1      672  8 64 fname=tapelev2_57_the_main_loop_apressure1
(PID.TID 0000.0001) ADREAD:  tid,vid, irec, length, prec(x2)=    41    58     1      672  8 64 fname=tapelev2_58_the_main_loop_siceload
(PID.TID 0000.0001) ADREAD:  tid,vid, irec, length, prec(x2)=    41    59     1      672  8 64 fname=tapelev2_59_the_main_loop_climsss0
(PID.TID 0000.0001) ADREAD:  tid,vid, irec, length, prec(x2)=    41    60     1      672  8 64 fname=tapelev2_60_the_main_loop_climsss1
(PID.TID 0000.0001) ADREAD:  tid,vid, irec, length, prec(x2)=    41    61     1      672  8 64 fname=tapelev2_61_the_main_loop_climsst0
(PID.TID 0000.0001) ADREAD:  tid,vid, irec, length, prec(x2)=    41    62     1      672  8 64 fname=tapelev2_62_the_main_loop_climsst1
(PID.TID 0000.0001) ADREAD:  tid,vid, irec, length, prec(x2)=    41    63     1      672  8 64 fname=tapelev2_63_the_main_loop_saltflx0
(PID.TID 0000.0001) ADREAD:  tid,vid, irec, length, prec(x2)=    41    64     1      672  8 64 fname=tapelev2_64_the_main_loop_saltflx1
(PID.TID 0000.0001) ADREAD:  tid,vid, irec, length, prec(x2)=    41    65     1      672  8 64 fname=tapelev2_65_the_main_loop_aqh0
(PID.TID 0000.0001) ADREAD:  tid,vid, irec, length, prec(x2)=    41    66     1      672  8 64 fname=tapelev2_66_the_main_loop_aqh1
(PID.TID 0000.0001) ADREAD:  tid,vid, irec, length, prec(x2)=    41    67     1      672  8 64 fname=tapelev2_67_the_main_loop_atemp0
(PID.TID 0000.0001) ADREAD:  tid,vid, irec, length, prec(x2)=    41    68     1      672  8 64 fname=tapelev2_68_the_main_loop_atemp1
(PID.TID 0000.0001) ADREAD:  tid,vid, irec, length, prec(x2)=    41    69     1      672  8 64 fname=tapelev2_69_the_main_loop_precip0
(PID.TID 0000.0001) ADREAD:  tid,vid, irec, length, prec(x2)=    41    70     1      672  8 64 fname=tapelev2_70_the_main_loop_precip1
(PID.TID 0000.0001) ADREAD:  tid,vid, irec, length, prec(x2)=    41    73     1      672  8 64 fname=tapelev2_73_the_main_loop_snowprecip0
(PID.TID 0000.0001) ADREAD:  tid,vid, irec, length, prec(x2)=    41    74     1      672  8 64 fname=tapelev2_74_the_main_loop_snowprecip1
(PID.TID 0000.0001) ADREAD:  tid,vid, irec, length, prec(x2)=    41    75     1      672  8 64 fname=tapelev2_75_the_main_loop_swdown0
(PID.TID 0000.0001) ADREAD:  tid,vid, irec, length, prec(x2)=    41    76     1      672  8 64 fname=tapelev2_76_the_main_loop_swdown1
(PID.TID 0000.0001) ADREAD:  tid,vid, irec, length, prec(x2)=    41    77     1      672  8 64 fname=tapelev2_77_the_main_loop_lwdown0
(PID.TID 0000.0001) ADREAD:  tid,vid, irec, length, prec(x2)=    41    78     1      672  8 64 fname=tapelev2_78_the_main_loop_lwdown1
(PID.TID 0000.0001) ADREAD:  tid,vid, irec, length, prec(x2)=    41    79     1      672  8 64 fname=tapelev2_79_the_main_loop_uwind0
(PID.TID 0000.0001) ADREAD:  tid,vid, irec, length, prec(x2)=    41    80     1      672  8 64 fname=tapelev2_80_the_main_loop_uwind1
(PID.TID 0000.0001) ADREAD:  tid,vid, irec, length, prec(x2)=    41    81     1      672  8 64 fname=tapelev2_81_the_main_loop_vwind0
(PID.TID 0000.0001) ADREAD:  tid,vid, irec, length, prec(x2)=    41    82     1      672  8 64 fname=tapelev2_82_the_main_loop_vwind1
(PID.TID 0000.0001) ADREAD:  tid,vid, irec, length, prec(x2)=    41    83     1     6048  8 64 fname=tapelev2_83_the_main_loop_xx_gentim2d
(PID.TID 0000.0001) ADREAD:  tid,vid, irec, length, prec(x2)=    41    84     1     6048  8 64 fname=tapelev2_84_the_main_loop_xx_gentim2d0
(PID.TID 0000.0001) ADREAD:  tid,vid, irec, length, prec(x2)=    41    85     1     6048  8 64 fname=tapelev2_85_the_main_loop_xx_gentim2d1
(PID.TID 0000.0001) ADREAD:  tid,vid, irec, length, prec(x2)=    41    87     1      672  8 64 fname=tapelev2_87_the_main_loop_phihydlow
(PID.TID 0000.0001) ADREAD:  tid,vid, irec, length, prec(x2)=    41    88     1      672  8 64 fname=tapelev2_88_the_main_loop_area
(PID.TID 0000.0001) ADREAD:  tid,vid, irec, length, prec(x2)=    41    89     1      672  8 64 fname=tapelev2_89_the_main_loop_heff
(PID.TID 0000.0001) ADREAD:  tid,vid, irec, length, prec(x2)=    41    90     1      672  8 64 fname=tapelev2_90_the_main_loop_hsnow
(PID.TID 0000.0001) ADREAD:  tid,vid, irec, length, prec(x2)=    41    92     1      672  8 64 fname=tapelev2_92_the_main_loop_uice
(PID.TID 0000.0001) ADREAD:  tid,vid, irec, length, prec(x2)=    41    93     1      672  8 64 fname=tapelev2_93_the_main_loop_vice
(PID.TID 0000.0001) ADREAD:  tid,vid, irec, length, prec(x2)=    41    96     1     4704  8 64 fname=tapelev2_96_the_main_loop_tices
(PID.TID 0000.0001) ADREAD:  tid,vid, irec, length, prec(x2)=    41    97     1      672  8 64 fname=tapelev2_97_the_main_loop_dwatn
(PID.TID 0000.0001) ADREAD:  tid,vid, irec, length, prec(x2)=    41    98     1      672  8 64 fname=tapelev2_98_the_main_loop_stressdivergencex
(PID.TID 0000.0001) ADREAD:  tid,vid, irec, length, prec(x2)=    41    99     1      672  8 64 fname=tapelev2_99_the_main_loop_stressdivergencey
(PID.TID 0000.0001) ADREAD:  tid,vid, irec, length, prec(x2)=    41   100     1      672  8 64 fname=tapelev2_100_the_main_loop_seaice_sigma1
(PID.TID 0000.0001) ADREAD:  tid,vid, irec, length, prec(x2)=    41   101     1      672  8 64 fname=tapelev2_101_the_main_loop_seaice_sigma2
(PID.TID 0000.0001) ADREAD:  tid,vid, irec, length, prec(x2)=    41   102     1      672  8 64 fname=tapelev2_102_the_main_loop_seaice_sigma12
(PID.TID 0000.0001) ADREAD:  tid,vid, irec, length, prec(x2)=    41   103     1      672  8 64 fname=tapelev2_103_the_main_loop_hsalt
(PID.TID 0000.0001)  MDS_READ_FIELD: opening global file: xx_atemp.effective.0000000001.data
(PID.TID 0000.0001)  MDS_READ_FIELD: opening global file: xx_atemp.effective.0000000001.data
(PID.TID 0000.0001) EXF_SET_FLD: processing field "climsss",  file: SSS_monthly.labsea1979
(PID.TID 0000.0001) EXF_SET_FLD:   myIter, count0, count1:         5      1      2
(PID.TID 0000.0001) EXF_SET_FLD:   first, changed, fac:   T   F    0.49316939890710387
(PID.TID 0000.0001) EXF_SET_FLD: field "climsss", it=         5, loading rec=     1
(PID.TID 0000.0001) EXF_SET_FLD:   from file: "SSS_monthly.labsea1979"
(PID.TID 0000.0001)  MDS_READ_FIELD: opening global file: SSS_monthly.labsea1979
(PID.TID 0000.0001) EXF_SET_FLD: field "climsss", it=         5, loading rec=     2
(PID.TID 0000.0001) EXF_SET_FLD:   from file: "SSS_monthly.labsea1979"
(PID.TID 0000.0001)  MDS_READ_FIELD: opening global file: SSS_monthly.labsea1979
(PID.TID 0000.0001) EXF_SET_FLD: processing field "uwind",  file: u10m.labsea1979
(PID.TID 0000.0001) EXF_SET_FLD:   myIter, count0, count1:         5      1      2
(PID.TID 0000.0001) EXF_SET_FLD:   first, changed, fac:   T   F    0.49316939890710387
(PID.TID 0000.0001) EXF_SET_FLD: field "uwind", it=         5, loading rec=     1
(PID.TID 0000.0001) EXF_SET_FLD:   from file: "u10m.labsea1979"
(PID.TID 0000.0001)  MDS_READ_FIELD: opening global file: u10m.labsea1979
(PID.TID 0000.0001) EXF_SET_FLD: field "uwind", it=         5, loading rec=     2
(PID.TID 0000.0001) EXF_SET_FLD:   from file: "u10m.labsea1979"
(PID.TID 0000.0001)  MDS_READ_FIELD: opening global file: u10m.labsea1979
(PID.TID 0000.0001) EXF_SET_FLD: processing field "vwind",  file: v10m.labsea1979
(PID.TID 0000.0001) EXF_SET_FLD:   myIter, count0, count1:         5      1      2
(PID.TID 0000.0001) EXF_SET_FLD:   first, changed, fac:   T   F    0.49316939890710387
(PID.TID 0000.0001) EXF_SET_FLD: field "vwind", it=         5, loading rec=     1
(PID.TID 0000.0001) EXF_SET_FLD:   from file: "v10m.labsea1979"
(PID.TID 0000.0001)  MDS_READ_FIELD: opening global file: v10m.labsea1979
(PID.TID 0000.0001) EXF_SET_FLD: field "vwind", it=         5, loading rec=     2
(PID.TID 0000.0001) EXF_SET_FLD:   from file: "v10m.labsea1979"
(PID.TID 0000.0001)  MDS_READ_FIELD: opening global file: v10m.labsea1979
(PID.TID 0000.0001) EXF_SET_FLD: processing field "atemp",  file: tair.labsea1979
(PID.TID 0000.0001) EXF_SET_FLD:   myIter, count0, count1:         5      1      2
(PID.TID 0000.0001) EXF_SET_FLD:   first, changed, fac:   T   F    0.49316939890710387
(PID.TID 0000.0001) EXF_SET_FLD: field "atemp", it=         5, loading rec=     1
(PID.TID 0000.0001) EXF_SET_FLD:   from file: "tair.labsea1979"
(PID.TID 0000.0001)  MDS_READ_FIELD: opening global file: tair.labsea1979
(PID.TID 0000.0001) EXF_SET_FLD: field "atemp", it=         5, loading rec=     2
(PID.TID 0000.0001) EXF_SET_FLD:   from file: "tair.labsea1979"
(PID.TID 0000.0001)  MDS_READ_FIELD: opening global file: tair.labsea1979
(PID.TID 0000.0001) EXF_SET_FLD: processing field "aqh",  file: qa.labsea1979
(PID.TID 0000.0001) EXF_SET_FLD:   myIter, count0, count1:         5      1      2
(PID.TID 0000.0001) EXF_SET_FLD:   first, changed, fac:   T   F    0.49316939890710387
(PID.TID 0000.0001) EXF_SET_FLD: field "aqh", it=         5, loading rec=     1
(PID.TID 0000.0001) EXF_SET_FLD:   from file: "qa.labsea1979"
(PID.TID 0000.0001)  MDS_READ_FIELD: opening global file: qa.labsea1979
(PID.TID 0000.0001) EXF_SET_FLD: field "aqh", it=         5, loading rec=     2
(PID.TID 0000.0001) EXF_SET_FLD:   from file: "qa.labsea1979"
(PID.TID 0000.0001)  MDS_READ_FIELD: opening global file: qa.labsea1979
(PID.TID 0000.0001) EXF_SET_FLD: processing field "precip",  file: prate.labsea1979
(PID.TID 0000.0001) EXF_SET_FLD:   myIter, count0, count1:         5      1      2
(PID.TID 0000.0001) EXF_SET_FLD:   first, changed, fac:   T   F    0.49316939890710387
(PID.TID 0000.0001) EXF_SET_FLD: field "precip", it=         5, loading rec=     1
(PID.TID 0000.0001) EXF_SET_FLD:   from file: "prate.labsea1979"
(PID.TID 0000.0001)  MDS_READ_FIELD: opening global file: prate.labsea1979
(PID.TID 0000.0001) EXF_SET_FLD: field "precip", it=         5, loading rec=     2
(PID.TID 0000.0001) EXF_SET_FLD:   from file: "prate.labsea1979"
(PID.TID 0000.0001)  MDS_READ_FIELD: opening global file: prate.labsea1979
(PID.TID 0000.0001) EXF_SET_FLD: processing field "swdown",  file: fsh.labsea1979
(PID.TID 0000.0001) EXF_SET_FLD:   myIter, count0, count1:         5      1      2
(PID.TID 0000.0001) EXF_SET_FLD:   first, changed, fac:   T   F    0.49316939890710387
(PID.TID 0000.0001) EXF_SET_FLD: field "swdown", it=         5, loading rec=     1
(PID.TID 0000.0001) EXF_SET_FLD:   from file: "fsh.labsea1979"
(PID.TID 0000.0001)  MDS_READ_FIELD: opening global file: fsh.labsea1979
(PID.TID 0000.0001) EXF_SET_FLD: field "swdown", it=         5, loading rec=     2
(PID.TID 0000.0001) EXF_SET_FLD:   from file: "fsh.labsea1979"
(PID.TID 0000.0001)  MDS_READ_FIELD: opening global file: fsh.labsea1979
(PID.TID 0000.0001) EXF_SET_FLD: processing field "lwdown",  file: flo.labsea1979
(PID.TID 0000.0001) EXF_SET_FLD:   myIter, count0, count1:         5      1      2
(PID.TID 0000.0001) EXF_SET_FLD:   first, changed, fac:   T   F    0.49316939890710387
(PID.TID 0000.0001) EXF_SET_FLD: field "lwdown", it=         5, loading rec=     1
(PID.TID 0000.0001) EXF_SET_FLD:   from file: "flo.labsea1979"
(PID.TID 0000.0001)  MDS_READ_FIELD: opening global file: flo.labsea1979
(PID.TID 0000.0001) EXF_SET_FLD: field "lwdown", it=         5, loading rec=     2
(PID.TID 0000.0001) EXF_SET_FLD:   from file: "flo.labsea1979"
(PID.TID 0000.0001)  MDS_READ_FIELD: opening global file: flo.labsea1979
(PID.TID 0000.0001) SOLVE_FOR_PRESSURE: putPmEinXvector =    F
DEBUG_STATS_RL:    cg2d_b (SOLVE_FOR_PRESSURE)  min= -7.45833771571459E+03
DEBUG_STATS_RL:    cg2d_b (SOLVE_FOR_PRESSURE)  max=  2.17494903027769E+03
DEBUG_STATS_RL:    cg2d_b (SOLVE_FOR_PRESSURE) mean=  4.18935997004155E-13
DEBUG_STATS_RL:    cg2d_b (SOLVE_FOR_PRESSURE) S.D.=  9.06377010650268E+02
 cg2d: Sum(rhs),rhsMax =   8.29197821516914E-15  1.20041496847834E+00
DEBUG_STATS_RL:    cg2d_x (SOLVE_FOR_PRESSURE)  min= -1.23196163368130E+00
DEBUG_STATS_RL:    cg2d_x (SOLVE_FOR_PRESSURE)  max=  3.23727429689848E+00
DEBUG_STATS_RL:    cg2d_x (SOLVE_FOR_PRESSURE) mean= -3.45194761148230E-02
DEBUG_STATS_RL:    cg2d_x (SOLVE_FOR_PRESSURE) S.D.=  7.10912240392561E-01
(PID.TID 0000.0001)  MDS_READ_FIELD: opening global file: xx_atemp.effective.0000000001.data
(PID.TID 0000.0001) EXF_SET_FLD: processing field "climsss",  file: SSS_monthly.labsea1979
(PID.TID 0000.0001) EXF_SET_FLD:   myIter, count0, count1:         6      1      2
(PID.TID 0000.0001) EXF_SET_FLD:   first, changed, fac:   F   F    0.49180327868852458
(PID.TID 0000.0001) EXF_SET_FLD: processing field "uwind",  file: u10m.labsea1979
(PID.TID 0000.0001) EXF_SET_FLD:   myIter, count0, count1:         6      1      2
(PID.TID 0000.0001) EXF_SET_FLD:   first, changed, fac:   F   F    0.49180327868852458
(PID.TID 0000.0001) EXF_SET_FLD: processing field "vwind",  file: v10m.labsea1979
(PID.TID 0000.0001) EXF_SET_FLD:   myIter, count0, count1:         6      1      2
(PID.TID 0000.0001) EXF_SET_FLD:   first, changed, fac:   F   F    0.49180327868852458
(PID.TID 0000.0001) EXF_SET_FLD: processing field "atemp",  file: tair.labsea1979
(PID.TID 0000.0001) EXF_SET_FLD:   myIter, count0, count1:         6      1      2
(PID.TID 0000.0001) EXF_SET_FLD:   first, changed, fac:   F   F    0.49180327868852458
(PID.TID 0000.0001) EXF_SET_FLD: processing field "aqh",  file: qa.labsea1979
(PID.TID 0000.0001) EXF_SET_FLD:   myIter, count0, count1:         6      1      2
(PID.TID 0000.0001) EXF_SET_FLD:   first, changed, fac:   F   F    0.49180327868852458
(PID.TID 0000.0001) EXF_SET_FLD: processing field "precip",  file: prate.labsea1979
(PID.TID 0000.0001) EXF_SET_FLD:   myIter, count0, count1:         6      1      2
(PID.TID 0000.0001) EXF_SET_FLD:   first, changed, fac:   F   F    0.49180327868852458
(PID.TID 0000.0001) EXF_SET_FLD: processing field "swdown",  file: fsh.labsea1979
(PID.TID 0000.0001) EXF_SET_FLD:   myIter, count0, count1:         6      1      2
(PID.TID 0000.0001) EXF_SET_FLD:   first, changed, fac:   F   F    0.49180327868852458
(PID.TID 0000.0001) EXF_SET_FLD: processing field "lwdown",  file: flo.labsea1979
(PID.TID 0000.0001) EXF_SET_FLD:   myIter, count0, count1:         6      1      2
(PID.TID 0000.0001) EXF_SET_FLD:   first, changed, fac:   F   F    0.49180327868852458
DEBUG_STATS_RL:    cg2d_b (SOLVE_FOR_PRESSURE)  min= -7.43169656861245E+03
DEBUG_STATS_RL:    cg2d_b (SOLVE_FOR_PRESSURE)  max=  2.17598296942634E+03
DEBUG_STATS_RL:    cg2d_b (SOLVE_FOR_PRESSURE) mean=  6.96331881044898E-13
DEBUG_STATS_RL:    cg2d_b (SOLVE_FOR_PRESSURE) S.D.=  9.02750100849735E+02
 cg2d: Sum(rhs),rhsMax =   1.41067713066434E-14  1.19612709187932E+00
DEBUG_STATS_RL:    cg2d_x (SOLVE_FOR_PRESSURE)  min= -1.18794061890904E+00
DEBUG_STATS_RL:    cg2d_x (SOLVE_FOR_PRESSURE)  max=  3.24511049575726E+00
DEBUG_STATS_RL:    cg2d_x (SOLVE_FOR_PRESSURE) mean= -3.88654400025836E-02
DEBUG_STATS_RL:    cg2d_x (SOLVE_FOR_PRESSURE) S.D.=  6.81167535252279E-01
(PID.TID 0000.0001) S/R ADAUTODIFF_INADMODE_SET: useKPP    =    T
(PID.TID 0000.0001) S/R ADAUTODIFF_INADMODE_SET: useGMRedi =    T
(PID.TID 0000.0001) S/R ADAUTODIFF_INADMODE_SET: useSEAICE =    T
(PID.TID 0000.0001) S/R ADAUTODIFF_INADMODE_SET: useGGL90    =    F
(PID.TID 0000.0001) S/R ADAUTODIFF_INADMODE_SET: useSALT_PLUME    =    F
(PID.TID 0000.0001) S/R ADAUTODIFF_INADMODE_SET: viscFacAdj = 1.00000000000000E+00
(PID.TID 0000.0001) // =======================================================
(PID.TID 0000.0001) // Begin AD_MONITOR dynamic field statistics
(PID.TID 0000.0001) // =======================================================
(PID.TID 0000.0001) %MON ad_time_tsnumber             =                     7
(PID.TID 0000.0001) %MON ad_time_secondsf             =   2.5200000000000E+04
(PID.TID 0000.0001) %MON ad_dynstat_adeta_max         =   7.2245958899191E+00
(PID.TID 0000.0001) %MON ad_dynstat_adeta_min         =  -5.9661141283830E+00
(PID.TID 0000.0001) %MON ad_dynstat_adeta_mean        =  -3.5802886569776E-02
(PID.TID 0000.0001) %MON ad_dynstat_adeta_sd          =   2.1566036757992E+00
(PID.TID 0000.0001) %MON ad_dynstat_adeta_del2        =   2.7797599865362E-01
(PID.TID 0000.0001) %MON ad_dynstat_aduvel_max        =   3.0639526691065E+01
(PID.TID 0000.0001) %MON ad_dynstat_aduvel_min        =  -2.5780081286865E+01
(PID.TID 0000.0001) %MON ad_dynstat_aduvel_mean       =  -1.1372224284936E+00
(PID.TID 0000.0001) %MON ad_dynstat_aduvel_sd         =   1.2068413102333E+00
(PID.TID 0000.0001) %MON ad_dynstat_aduvel_del2       =   8.6884324668516E-02
(PID.TID 0000.0001) %MON ad_dynstat_advvel_max        =   1.8989892913762E+02
(PID.TID 0000.0001) %MON ad_dynstat_advvel_min        =  -1.2224973400778E+02
(PID.TID 0000.0001) %MON ad_dynstat_advvel_mean       =   9.7690906885992E-01
(PID.TID 0000.0001) %MON ad_dynstat_advvel_sd         =   2.2294047430825E+00
(PID.TID 0000.0001) %MON ad_dynstat_advvel_del2       =   4.7437094570549E-01
(PID.TID 0000.0001) %MON ad_dynstat_adwvel_max        =   4.2934859430843E+01
(PID.TID 0000.0001) %MON ad_dynstat_adwvel_min        =  -2.7411616618714E+01
(PID.TID 0000.0001) %MON ad_dynstat_adwvel_mean       =  -3.6656997214763E-03
(PID.TID 0000.0001) %MON ad_dynstat_adwvel_sd         =   9.4706002386471E-01
(PID.TID 0000.0001) %MON ad_dynstat_adwvel_del2       =   1.1665986006703E-01
(PID.TID 0000.0001) %MON ad_dynstat_adtheta_max       =   2.1887980544549E-01
(PID.TID 0000.0001) %MON ad_dynstat_adtheta_min       =  -1.4771105931127E+01
(PID.TID 0000.0001) %MON ad_dynstat_adtheta_mean      =  -3.6405606554614E-02
(PID.TID 0000.0001) %MON ad_dynstat_adtheta_sd        =   7.1687431850148E-01
(PID.TID 0000.0001) %MON ad_dynstat_adtheta_del2      =   3.4383132882577E-02
(PID.TID 0000.0001) %MON ad_dynstat_adsalt_max        =   1.4762080021826E+00
(PID.TID 0000.0001) %MON ad_dynstat_adsalt_min        =  -1.4030418892250E+00
(PID.TID 0000.0001) %MON ad_dynstat_adsalt_mean       =  -3.1114783486586E-03
(PID.TID 0000.0001) %MON ad_dynstat_adsalt_sd         =   3.9322663666908E-01
(PID.TID 0000.0001) %MON ad_dynstat_adsalt_del2       =   9.2304673648541E-03
(PID.TID 0000.0001) %MON ad_dynstat_adsst_max         =   1.0539334135652E-01
(PID.TID 0000.0001) %MON ad_dynstat_adsst_min         =  -1.4771105931127E+01
(PID.TID 0000.0001) %MON ad_dynstat_adsst_mean        =  -5.4847770268307E+00
(PID.TID 0000.0001) %MON ad_dynstat_adsst_sd          =   6.7780741149231E+00
(PID.TID 0000.0001) %MON ad_dynstat_adsst_del2        =   4.2592947936177E-01
(PID.TID 0000.0001) %MON ad_dynstat_adsss_max         =   5.1489988640999E-02
(PID.TID 0000.0001) %MON ad_dynstat_adsss_min         =  -5.5599276838372E-02
(PID.TID 0000.0001) %MON ad_dynstat_adsss_mean        =  -4.1505159630421E-03
(PID.TID 0000.0001) %MON ad_dynstat_adsss_sd          =   1.6411094699724E-02
(PID.TID 0000.0001) %MON ad_dynstat_adsss_del2        =   2.1111655028992E-03
(PID.TID 0000.0001) // =======================================================
(PID.TID 0000.0001) // End AD_MONITOR dynamic field statistics
(PID.TID 0000.0001) // =======================================================
(PID.TID 0000.0001) // =======================================================
(PID.TID 0000.0001) // Begin AD_MONITOR SEAICE statistics
(PID.TID 0000.0001) // =======================================================
(PID.TID 0000.0001) %MON ad_seaice_tsnumber           =                     7
(PID.TID 0000.0001) %MON ad_seaice_time_sec           =   2.5200000000000E+04
(PID.TID 0000.0001) %MON ad_seaice_aduice_max         =   2.5409793561252E+04
(PID.TID 0000.0001) %MON ad_seaice_aduice_min         =  -2.3195846934868E+04
(PID.TID 0000.0001) %MON ad_seaice_aduice_mean        =  -5.5178018888977E-01
(PID.TID 0000.0001) %MON ad_seaice_aduice_sd          =   3.3118238588580E+03
(PID.TID 0000.0001) %MON ad_seaice_aduice_del2        =   1.0200995977867E+03
(PID.TID 0000.0001) %MON ad_seaice_advice_max         =   2.0396968391511E+04
(PID.TID 0000.0001) %MON ad_seaice_advice_min         =  -4.0109448256509E+04
(PID.TID 0000.0001) %MON ad_seaice_advice_mean        =   2.4942667214661E+00
(PID.TID 0000.0001) %MON ad_seaice_advice_sd          =   4.6571007647094E+03
(PID.TID 0000.0001) %MON ad_seaice_advice_del2        =   1.4984097967925E+03
(PID.TID 0000.0001) %MON ad_seaice_adarea_max         =   1.2508172234452E+03
(PID.TID 0000.0001) %MON ad_seaice_adarea_min         =  -3.2259571271765E+03
(PID.TID 0000.0001) %MON ad_seaice_adarea_mean        =  -2.0199076660156E+01
(PID.TID 0000.0001) %MON ad_seaice_adarea_sd          =   3.1838073492221E+02
(PID.TID 0000.0001) %MON ad_seaice_adarea_del2        =   8.3697542267960E+01
(PID.TID 0000.0001) %MON ad_seaice_adheff_max         =   5.8582121276882E+02
(PID.TID 0000.0001) %MON ad_seaice_adheff_min         =  -9.7696974339434E+02
(PID.TID 0000.0001) %MON ad_seaice_adheff_mean        =   3.6198099212732E+01
(PID.TID 0000.0001) %MON ad_seaice_adheff_sd          =   1.2065641428445E+02
(PID.TID 0000.0001) %MON ad_seaice_adheff_del2        =   2.8452064585811E+01
(PID.TID 0000.0001) %MON ad_seaice_adhsnow_max        =   4.2420863047405E+01
(PID.TID 0000.0001) %MON ad_seaice_adhsnow_min        =  -1.4275249858134E+00
(PID.TID 0000.0001) %MON ad_seaice_adhsnow_mean       =   1.4954051324010E+01
(PID.TID 0000.0001) %MON ad_seaice_adhsnow_sd         =   1.9680107039292E+01
(PID.TID 0000.0001) %MON ad_seaice_adhsnow_del2       =   1.2290061815618E+00
(PID.TID 0000.0001) %MON ad_seaice_adhsalt_max        =   9.4022622949527E-07
(PID.TID 0000.0001) %MON ad_seaice_adhsalt_min        =  -3.8837429656842E-04
(PID.TID 0000.0001) %MON ad_seaice_adhsalt_mean       =  -7.4864413391211E-05
(PID.TID 0000.0001) %MON ad_seaice_adhsalt_sd         =   1.0709055708878E-04
(PID.TID 0000.0001) %MON ad_seaice_adhsalt_del2       =   6.5303705906267E-06
(PID.TID 0000.0001) // =======================================================
(PID.TID 0000.0001) // End AD_MONITOR SEAICE statistics
(PID.TID 0000.0001) // =======================================================
(PID.TID 0000.0001)  MDS_WRITE_FIELD: it,rec,kS,kL,kH=       7     1   1   1   1 file=ADJetan.0000000007
 Calling cg2d from S/R CG2D_MAD
 cg2d: Sum(rhs),rhsMax =   2.42405921724309E-15  4.42152082509633E-03
(PID.TID 0000.0001)       CG2D_MAD cg2d_init_res =   2.51644605263405E+00
(PID.TID 0000.0001)      CG2D_MAD: cg2d_iters(min,last) =      -1      46
(PID.TID 0000.0001)      CG2D_MAD: cg2d_last_res =   5.44549525331232E-14
(PID.TID 0000.0001)  MDS_WRITE_FIELD: it,rec,kS,kL,kH=       6     1   1   1   1 file=ADJtaux.0000000006
(PID.TID 0000.0001)  MDS_WRITE_FIELD: it,rec,kS,kL,kH=       6     1   1   1   1 file=ADJtauy.0000000006
(PID.TID 0000.0001)  MDS_WRITE_FIELD: it,rec,kS,kL,kH=       6     1   1   1   1 file=ADJqnet.0000000006
(PID.TID 0000.0001)  MDS_WRITE_FIELD: it,rec,kS,kL,kH=       6     1   1   1   1 file=ADJempr.0000000006
(PID.TID 0000.0001)  MDS_WRITE_FIELD: it,rec,kS,kL,kH=       6     1   1   1   1 file=ADJqsw.0000000006
(PID.TID 0000.0001) // =======================================================
(PID.TID 0000.0001) // Begin AD_MONITOR EXF statistics for iwhen =  3
(PID.TID 0000.0001) // =======================================================
(PID.TID 0000.0001) %MON ad_exf_tsnumber              =                     6
(PID.TID 0000.0001) %MON ad_exf_time_sec              =   2.1600000000000E+04
(PID.TID 0000.0001) %MON ad_exf_adfu_max              =   6.6074595997636E+00
(PID.TID 0000.0001) %MON ad_exf_adfu_min              =  -8.6419774589540E+00
(PID.TID 0000.0001) %MON ad_exf_adfu_mean             =   3.6357525140890E-01
(PID.TID 0000.0001) %MON ad_exf_adfu_sd               =   1.4989447964475E+00
(PID.TID 0000.0001) %MON ad_exf_adfu_del2             =   3.0992524091678E-01
(PID.TID 0000.0001) %MON ad_exf_adfv_max              =   6.6611503820487E+01
(PID.TID 0000.0001) %MON ad_exf_adfv_min              =  -4.3230709432465E+01
(PID.TID 0000.0001) %MON ad_exf_adfv_mean             =   1.0849961215944E-01
(PID.TID 0000.0001) %MON ad_exf_adfv_sd               =   7.9192995978592E+00
(PID.TID 0000.0001) %MON ad_exf_adfv_del2             =   1.9145288211134E+00
(PID.TID 0000.0001) %MON ad_exf_adqnet_max            =   1.2913602892820E-03
(PID.TID 0000.0001) %MON ad_exf_adqnet_min            =  -9.1986604028160E-06
(PID.TID 0000.0001) %MON ad_exf_adqnet_mean           =   4.7823687300020E-04
(PID.TID 0000.0001) %MON ad_exf_adqnet_sd             =   5.9078191968215E-04
(PID.TID 0000.0001) %MON ad_exf_adqnet_del2           =   3.7388833553539E-05
(PID.TID 0000.0001) %MON ad_exf_adempmr_max           =   5.2407965688970E-01
(PID.TID 0000.0001) %MON ad_exf_adempmr_min           =  -4.5353572804414E+01
(PID.TID 0000.0001) %MON ad_exf_adempmr_mean          =  -9.3801798761737E+00
(PID.TID 0000.0001) %MON ad_exf_adempmr_sd            =   1.3028475460874E+01
(PID.TID 0000.0001) %MON ad_exf_adempmr_del2          =   7.6248205936990E-01
(PID.TID 0000.0001) %MON ad_exf_adqsw_max             =   2.1335451403707E-06
(PID.TID 0000.0001) %MON ad_exf_adqsw_min             =  -2.9740981713387E-04
(PID.TID 0000.0001) %MON ad_exf_adqsw_mean            =  -1.1018987442250E-04
(PID.TID 0000.0001) %MON ad_exf_adqsw_sd              =   1.3621213439982E-04
(PID.TID 0000.0001) %MON ad_exf_adqsw_del2            =   8.6093937572449E-06
(PID.TID 0000.0001) // =======================================================
(PID.TID 0000.0001) // End AD_MONITOR EXF statistics for iwhen =  3
(PID.TID 0000.0001) // =======================================================
(PID.TID 0000.0001)  MDS_WRITE_FIELD: it,rec,kS,kL,kH=       6     1  23   1  23 file=ADJtheta.0000000006
(PID.TID 0000.0001)  MDS_WRITE_FIELD: it,rec,kS,kL,kH=       6     1  23   1  23 file=ADJsalt.0000000006
(PID.TID 0000.0001)  MDS_WRITE_FIELD: it,rec,kS,kL,kH=       6     1  23   1  23 file=ADJwvel.0000000006
(PID.TID 0000.0001)  MDS_WRITE_FIELD: it,rec,kS,kL,kH=       6     1  23   1  23 file=ADJuvel.0000000006
(PID.TID 0000.0001)  MDS_WRITE_FIELD: it,rec,kS,kL,kH=       6     1  23   1  23 file=ADJvvel.0000000006
(PID.TID 0000.0001)  MDS_WRITE_FIELD: it,rec,kS,kL,kH=       6     1   1   1   1 file=ADJarea.0000000006
(PID.TID 0000.0001)  MDS_WRITE_FIELD: it,rec,kS,kL,kH=       6     1   1   1   1 file=ADJheff.0000000006
(PID.TID 0000.0001)  MDS_WRITE_FIELD: it,rec,kS,kL,kH=       6     1   1   1   1 file=ADJhsnow.0000000006
(PID.TID 0000.0001)  MDS_WRITE_FIELD: it,rec,kS,kL,kH=       6     1   1   1   1 file=ADJuice.0000000006
(PID.TID 0000.0001)  MDS_WRITE_FIELD: it,rec,kS,kL,kH=       6     1   1   1   1 file=ADJvice.0000000006
(PID.TID 0000.0001)  MDS_WRITE_FIELD: it,rec,kS,kL,kH=       6     1   1   1   1 file=ADJustress.0000000006
(PID.TID 0000.0001)  MDS_WRITE_FIELD: it,rec,kS,kL,kH=       6     1   1   1   1 file=ADJvstress.0000000006
(PID.TID 0000.0001)  MDS_WRITE_FIELD: it,rec,kS,kL,kH=       6     1   1   1   1 file=ADJhflux.0000000006
(PID.TID 0000.0001)  MDS_WRITE_FIELD: it,rec,kS,kL,kH=       6     1   1   1   1 file=ADJsflux.0000000006
(PID.TID 0000.0001) // =======================================================
(PID.TID 0000.0001) // Begin AD_MONITOR EXF statistics for iwhen =  1
(PID.TID 0000.0001) // =======================================================
(PID.TID 0000.0001) %MON ad_exf_tsnumber              =                     6
(PID.TID 0000.0001) %MON ad_exf_time_sec              =   2.1600000000000E+04
(PID.TID 0000.0001) %MON ad_exf_adustress_max         =   1.0397020592420E+00
(PID.TID 0000.0001) %MON ad_exf_adustress_min         =  -2.1438914844751E-01
(PID.TID 0000.0001) %MON ad_exf_adustress_mean        =   6.1649979419402E-02
(PID.TID 0000.0001) %MON ad_exf_adustress_sd          =   1.8114224723183E-01
(PID.TID 0000.0001) %MON ad_exf_adustress_del2        =   2.6904174139044E-02
(PID.TID 0000.0001) %MON ad_exf_advstress_max         =   2.5223425854496E+00
(PID.TID 0000.0001) %MON ad_exf_advstress_min         =  -3.8424954761940E-01
(PID.TID 0000.0001) %MON ad_exf_advstress_mean        =   8.2586042573789E-02
(PID.TID 0000.0001) %MON ad_exf_advstress_sd          =   3.3223690725487E-01
(PID.TID 0000.0001) %MON ad_exf_advstress_del2        =   5.3727928571322E-02
(PID.TID 0000.0001) %MON ad_exf_adhflux_max           =   1.2913602892820E-03
(PID.TID 0000.0001) %MON ad_exf_adhflux_min           =  -7.9294585000273E-06
(PID.TID 0000.0001) %MON ad_exf_adhflux_mean          =   4.5066640167044E-04
(PID.TID 0000.0001) %MON ad_exf_adhflux_sd            =   6.0212984126366E-04
(PID.TID 0000.0001) %MON ad_exf_adhflux_del2          =   3.9300428057847E-05
(PID.TID 0000.0001) %MON ad_exf_adsflux_max           =   0.0000000000000E+00
(PID.TID 0000.0001) %MON ad_exf_adsflux_min           =   0.0000000000000E+00
(PID.TID 0000.0001) %MON ad_exf_adsflux_mean          =   0.0000000000000E+00
(PID.TID 0000.0001) %MON ad_exf_adsflux_sd            =   0.0000000000000E+00
(PID.TID 0000.0001) %MON ad_exf_adsflux_del2          =   0.0000000000000E+00
(PID.TID 0000.0001) %MON ad_exf_adswflux_max          =   9.9397409353666E-04
(PID.TID 0000.0001) %MON ad_exf_adswflux_min          =  -7.9386818937793E-06
(PID.TID 0000.0001) %MON ad_exf_adswflux_mean         =   3.4677206370726E-04
(PID.TID 0000.0001) %MON ad_exf_adswflux_sd           =   4.6333918250084E-04
(PID.TID 0000.0001) %MON ad_exf_adswflux_del2         =   3.0249982657628E-05
(PID.TID 0000.0001) %MON ad_exf_adwspeed_max          =   5.7134984296350E-03
(PID.TID 0000.0001) %MON ad_exf_adwspeed_min          =  -5.1480297275913E-03
(PID.TID 0000.0001) %MON ad_exf_adwspeed_mean         =   1.5753870499489E-06
(PID.TID 0000.0001) %MON ad_exf_adwspeed_sd           =   7.8436463223596E-04
(PID.TID 0000.0001) %MON ad_exf_adwspeed_del2         =   2.0282252991478E-04
(PID.TID 0000.0001) // =======================================================
(PID.TID 0000.0001) // End AD_MONITOR EXF statistics for iwhen =  1
(PID.TID 0000.0001) // =======================================================
(PID.TID 0000.0001)  MDS_WRITE_FIELD: it,rec,kS,kL,kH=       6     1   1   1   1 file=ADJatemp.0000000006
(PID.TID 0000.0001)  MDS_WRITE_FIELD: it,rec,kS,kL,kH=       6     1   1   1   1 file=ADJaqh.0000000006
(PID.TID 0000.0001)  MDS_WRITE_FIELD: it,rec,kS,kL,kH=       6     1   1   1   1 file=ADJprecip.0000000006
(PID.TID 0000.0001)  MDS_WRITE_FIELD: it,rec,kS,kL,kH=       6     1   1   1   1 file=ADJrunoff.0000000006
(PID.TID 0000.0001)  MDS_WRITE_FIELD: it,rec,kS,kL,kH=       6     1   1   1   1 file=ADJuwind.0000000006
(PID.TID 0000.0001)  MDS_WRITE_FIELD: it,rec,kS,kL,kH=       6     1   1   1   1 file=ADJvwind.0000000006
(PID.TID 0000.0001)  MDS_WRITE_FIELD: it,rec,kS,kL,kH=       6     1   1   1   1 file=ADJswdown.0000000006
(PID.TID 0000.0001)  MDS_WRITE_FIELD: it,rec,kS,kL,kH=       6     1   1   1   1 file=ADJlwdown.0000000006
(PID.TID 0000.0001)  MDS_WRITE_FIELD: it,rec,kS,kL,kH=       6     1   1   1   1 file=ADJclimsst.0000000006
(PID.TID 0000.0001)  MDS_WRITE_FIELD: it,rec,kS,kL,kH=       6     1   1   1   1 file=ADJclimsss.0000000006
(PID.TID 0000.0001) // =======================================================
(PID.TID 0000.0001) // Begin AD_MONITOR EXF statistics for iwhen =  2
(PID.TID 0000.0001) // =======================================================
(PID.TID 0000.0001) %MON ad_exf_tsnumber              =                     6
(PID.TID 0000.0001) %MON ad_exf_time_sec              =   2.1600000000000E+04
(PID.TID 0000.0001) %MON ad_exf_aduwind_max           =   1.3742640596171E+02
(PID.TID 0000.0001) %MON ad_exf_aduwind_min           =  -8.1490816196462E+01
(PID.TID 0000.0001) %MON ad_exf_aduwind_mean          =  -1.0929874082131E-01
(PID.TID 0000.0001) %MON ad_exf_aduwind_sd            =   2.0377784174446E+01
(PID.TID 0000.0001) %MON ad_exf_aduwind_del2          =   3.4139195073855E+00
(PID.TID 0000.0001) %MON ad_exf_advwind_max           =   9.7446261496829E+01
(PID.TID 0000.0001) %MON ad_exf_advwind_min           =  -5.6656643816988E+01
(PID.TID 0000.0001) %MON ad_exf_advwind_mean          =   4.6892689185930E-01
(PID.TID 0000.0001) %MON ad_exf_advwind_sd            =   1.4274513474039E+01
(PID.TID 0000.0001) %MON ad_exf_advwind_del2          =   2.6069210365137E+00
(PID.TID 0000.0001) %MON ad_exf_adatemp_max           =   1.7483956438581E-02
(PID.TID 0000.0001) %MON ad_exf_adatemp_min           =  -1.4252669058817E-02
(PID.TID 0000.0001) %MON ad_exf_adatemp_mean          =  -1.9534767996901E-03
(PID.TID 0000.0001) %MON ad_exf_adatemp_sd            =   3.6994681935212E-03
(PID.TID 0000.0001) %MON ad_exf_adatemp_del2          =   5.9596276240022E-04
(PID.TID 0000.0001) %MON ad_exf_adaqh_max             =   4.9073043523946E+01
(PID.TID 0000.0001) %MON ad_exf_adaqh_min             =  -4.0191108569839E+01
(PID.TID 0000.0001) %MON ad_exf_adaqh_mean            =  -7.9204694716209E+00
(PID.TID 0000.0001) %MON ad_exf_adaqh_sd              =   1.2691498893557E+01
(PID.TID 0000.0001) %MON ad_exf_adaqh_del2            =   1.7380572680669E+00
(PID.TID 0000.0001) %MON ad_exf_adprecip_max          =   2.0549497264262E+06
(PID.TID 0000.0001) %MON ad_exf_adprecip_min          =  -3.4257150288005E+06
(PID.TID 0000.0001) %MON ad_exf_adprecip_mean         =  -5.6443429190708E+03
(PID.TID 0000.0001) %MON ad_exf_adprecip_sd           =   3.7331382391331E+05
(PID.TID 0000.0001) %MON ad_exf_adprecip_del2         =   9.9412716026212E+04
(PID.TID 0000.0001) %MON ad_exf_adlwdown_max          =   1.4455011118591E-03
(PID.TID 0000.0001) %MON ad_exf_adlwdown_min          =  -1.2526422559172E-03
(PID.TID 0000.0001) %MON ad_exf_adlwdown_mean         =  -4.3710684567586E-04
(PID.TID 0000.0001) %MON ad_exf_adlwdown_sd           =   6.1369840964550E-04
(PID.TID 0000.0001) %MON ad_exf_adlwdown_del2         =   5.9371501279470E-05
(PID.TID 0000.0001) %MON ad_exf_adswdown_max          =   3.2645002482431E-04
(PID.TID 0000.0001) %MON ad_exf_adswdown_min          =  -8.9457668418300E-04
(PID.TID 0000.0001) %MON ad_exf_adswdown_mean         =  -3.1237963966466E-04
(PID.TID 0000.0001) %MON ad_exf_adswdown_sd           =   4.1916629689607E-04
(PID.TID 0000.0001) %MON ad_exf_adswdown_del2         =   2.8508091169762E-05
(PID.TID 0000.0001) %MON ad_exf_adrunoff_max          =   1.4332618476358E+05
(PID.TID 0000.0001) %MON ad_exf_adrunoff_min          =  -6.8330130274746E+02
(PID.TID 0000.0001) %MON ad_exf_adrunoff_mean         =   3.6071545641634E+04
(PID.TID 0000.0001) %MON ad_exf_adrunoff_sd           =   3.7435188689912E+04
(PID.TID 0000.0001) %MON ad_exf_adrunoff_del2         =   2.7918162695703E+03
(PID.TID 0000.0001) // =======================================================
(PID.TID 0000.0001) // End AD_MONITOR EXF statistics for iwhen =  2
(PID.TID 0000.0001) // =======================================================
(PID.TID 0000.0001)  MDS_READ_FIELD: opening global file: adxx_atemp.effective.0000000001.data
(PID.TID 0000.0001)  MDS_WRITE_FIELD: it,rec,kS,kL,kH=       1    -3  23   1   1 file=adxx_atemp.effective.0000000001
(PID.TID 0000.0001) S/R ADAUTODIFF_INADMODE_UNSET: useKPP    =    T
(PID.TID 0000.0001) S/R ADAUTODIFF_INADMODE_UNSET: useGMRedi =    T
(PID.TID 0000.0001) S/R ADAUTODIFF_INADMODE_UNSET: useSEAICE =    T
(PID.TID 0000.0001) S/R ADAUTODIFF_INADMODE_UNSET: useGGL90    =    F
(PID.TID 0000.0001) S/R ADAUTODIFF_INADMODE_UNSET: useSALT_PLUME    =    F
(PID.TID 0000.0001) S/R ADAUTODIFF_INADMODE_UNSET: viscFacAdj = 1.00000000000000E+00
(PID.TID 0000.0001)  MDS_READ_FIELD: opening global file: adm_sst_step.0000000001.data
(PID.TID 0000.0001)  MDS_WRITE_FIELD: it,rec,kS,kL,kH=       1    -2  23   1   1 file=adm_sst_step.0000000001
(PID.TID 0000.0001) S/R ADAUTODIFF_INADMODE_SET: useKPP    =    T
(PID.TID 0000.0001) S/R ADAUTODIFF_INADMODE_SET: useGMRedi =    T
(PID.TID 0000.0001) S/R ADAUTODIFF_INADMODE_SET: useSEAICE =    T
(PID.TID 0000.0001) S/R ADAUTODIFF_INADMODE_SET: useGGL90    =    F
(PID.TID 0000.0001) S/R ADAUTODIFF_INADMODE_SET: useSALT_PLUME    =    F
(PID.TID 0000.0001) S/R ADAUTODIFF_INADMODE_SET: viscFacAdj = 1.00000000000000E+00
(PID.TID 0000.0001) // =======================================================
(PID.TID 0000.0001) // Begin AD_MONITOR dynamic field statistics
(PID.TID 0000.0001) // =======================================================
(PID.TID 0000.0001) %MON ad_time_tsnumber             =                     6
(PID.TID 0000.0001) %MON ad_time_secondsf             =   2.1600000000000E+04
(PID.TID 0000.0001) %MON ad_dynstat_adeta_max         =   1.1406508488298E+02
(PID.TID 0000.0001) %MON ad_dynstat_adeta_min         =  -1.3475144376757E+02
(PID.TID 0000.0001) %MON ad_dynstat_adeta_mean        =   3.5331575631621E-02
(PID.TID 0000.0001) %MON ad_dynstat_adeta_sd          =   1.9165085591752E+01
(PID.TID 0000.0001) %MON ad_dynstat_adeta_del2        =   5.5626535638585E+00
(PID.TID 0000.0001) %MON ad_dynstat_aduvel_max        =   7.3774179261711E+03
(PID.TID 0000.0001) %MON ad_dynstat_aduvel_min        =  -4.3241906993063E+03
(PID.TID 0000.0001) %MON ad_dynstat_aduvel_mean       =   6.4944565373138E-03
(PID.TID 0000.0001) %MON ad_dynstat_aduvel_sd         =   8.0426307288303E+01
(PID.TID 0000.0001) %MON ad_dynstat_aduvel_del2       =   1.7620240122130E+01
(PID.TID 0000.0001) %MON ad_dynstat_advvel_max        =   7.1009626705889E+03
(PID.TID 0000.0001) %MON ad_dynstat_advvel_min        =  -4.5066305258465E+03
(PID.TID 0000.0001) %MON ad_dynstat_advvel_mean       =   1.9246165616737E+00
(PID.TID 0000.0001) %MON ad_dynstat_advvel_sd         =   9.0367204930810E+01
(PID.TID 0000.0001) %MON ad_dynstat_advvel_del2       =   2.3863106082002E+01
(PID.TID 0000.0001) %MON ad_dynstat_adwvel_max        =   5.0371205232102E+03
(PID.TID 0000.0001) %MON ad_dynstat_adwvel_min        =  -5.4295395523077E+03
(PID.TID 0000.0001) %MON ad_dynstat_adwvel_mean       =   4.9102103184155E-02
(PID.TID 0000.0001) %MON ad_dynstat_adwvel_sd         =   6.5847102546921E+01
(PID.TID 0000.0001) %MON ad_dynstat_adwvel_del2       =   1.1839381342240E+01
(PID.TID 0000.0001) %MON ad_dynstat_adtheta_max       =   9.3336589241262E+01
(PID.TID 0000.0001) %MON ad_dynstat_adtheta_min       =  -5.6142631829159E+01
(PID.TID 0000.0001) %MON ad_dynstat_adtheta_mean      =  -3.4337573929879E-02
(PID.TID 0000.0001) %MON ad_dynstat_adtheta_sd        =   1.0980676330978E+00
(PID.TID 0000.0001) %MON ad_dynstat_adtheta_del2      =   2.2056386590664E-01
(PID.TID 0000.0001) %MON ad_dynstat_adsalt_max        =   2.0274555310223E+00
(PID.TID 0000.0001) %MON ad_dynstat_adsalt_min        =  -2.5875671652373E+00
(PID.TID 0000.0001) %MON ad_dynstat_adsalt_mean       =   8.4313287382016E-03
(PID.TID 0000.0001) %MON ad_dynstat_adsalt_sd         =   6.0900383376804E-01
(PID.TID 0000.0001) %MON ad_dynstat_adsalt_del2       =   1.6002295316350E-02
(PID.TID 0000.0001) %MON ad_dynstat_adsst_max         =   9.3336589241262E+01
(PID.TID 0000.0001) %MON ad_dynstat_adsst_min         =  -5.6142631829159E+01
(PID.TID 0000.0001) %MON ad_dynstat_adsst_mean        =  -4.8179202501274E+00
(PID.TID 0000.0001) %MON ad_dynstat_adsst_sd          =   1.2445618384918E+01
(PID.TID 0000.0001) %MON ad_dynstat_adsst_del2        =   2.7348103363525E+00
(PID.TID 0000.0001) %MON ad_dynstat_adsss_max         =   8.0206104260834E-02
(PID.TID 0000.0001) %MON ad_dynstat_adsss_min         =  -1.2329503254052E-01
(PID.TID 0000.0001) %MON ad_dynstat_adsss_mean        =  -4.9060475955046E-03
(PID.TID 0000.0001) %MON ad_dynstat_adsss_sd          =   2.5877700054685E-02
(PID.TID 0000.0001) %MON ad_dynstat_adsss_del2        =   4.8425249822372E-03
(PID.TID 0000.0001) // =======================================================
(PID.TID 0000.0001) // End AD_MONITOR dynamic field statistics
(PID.TID 0000.0001) // =======================================================
(PID.TID 0000.0001) // =======================================================
(PID.TID 0000.0001) // Begin AD_MONITOR SEAICE statistics
(PID.TID 0000.0001) // =======================================================
(PID.TID 0000.0001) %MON ad_seaice_tsnumber           =                     6
(PID.TID 0000.0001) %MON ad_seaice_time_sec           =   2.1600000000000E+04
(PID.TID 0000.0001) %MON ad_seaice_aduice_max         =   2.2937252853900E+06
(PID.TID 0000.0001) %MON ad_seaice_aduice_min         =  -2.2499708990293E+06
(PID.TID 0000.0001) %MON ad_seaice_aduice_mean        =   3.6435639282597E+00
(PID.TID 0000.0001) %MON ad_seaice_aduice_sd          =   3.1002016165707E+05
(PID.TID 0000.0001) %MON ad_seaice_aduice_del2        =   1.0022809811872E+05
(PID.TID 0000.0001) %MON ad_seaice_advice_max         =   5.6621843053845E+05
(PID.TID 0000.0001) %MON ad_seaice_advice_min         =  -5.0615795719071E+05
(PID.TID 0000.0001) %MON ad_seaice_advice_mean        =  -4.0280263909144E+02
(PID.TID 0000.0001) %MON ad_seaice_advice_sd          =   8.1143152704305E+04
(PID.TID 0000.0001) %MON ad_seaice_advice_del2        =   2.4287743260643E+04
(PID.TID 0000.0001) %MON ad_seaice_adarea_max         =   7.1219090141103E+04
(PID.TID 0000.0001) %MON ad_seaice_adarea_min         =  -9.3145629850285E+04
(PID.TID 0000.0001) %MON ad_seaice_adarea_mean        =  -2.5512145986349E+02
(PID.TID 0000.0001) %MON ad_seaice_adarea_sd          =   1.0663722059044E+04
(PID.TID 0000.0001) %MON ad_seaice_adarea_del2        =   2.5750589559171E+03
(PID.TID 0000.0001) %MON ad_seaice_adheff_max         =   4.7442114744181E+04
(PID.TID 0000.0001) %MON ad_seaice_adheff_min         =  -2.8976545977230E+04
(PID.TID 0000.0001) %MON ad_seaice_adheff_mean        =   1.9252709739462E+02
(PID.TID 0000.0001) %MON ad_seaice_adheff_sd          =   5.0233757350315E+03
(PID.TID 0000.0001) %MON ad_seaice_adheff_del2        =   1.1867766728365E+03
(PID.TID 0000.0001) %MON ad_seaice_adhsnow_max        =   1.8647136856073E+02
(PID.TID 0000.0001) %MON ad_seaice_adhsnow_min        =  -3.1273230588341E+02
(PID.TID 0000.0001) %MON ad_seaice_adhsnow_mean       =   1.3282786672347E+01
(PID.TID 0000.0001) %MON ad_seaice_adhsnow_sd         =   3.9695931880091E+01
(PID.TID 0000.0001) %MON ad_seaice_adhsnow_del2       =   9.1037428845634E+00
(PID.TID 0000.0001) %MON ad_seaice_adhsalt_max        =   2.6156575087337E-06
(PID.TID 0000.0001) %MON ad_seaice_adhsalt_min        =  -3.5994899051122E-04
(PID.TID 0000.0001) %MON ad_seaice_adhsalt_mean       =  -7.3099293537468E-05
(PID.TID 0000.0001) %MON ad_seaice_adhsalt_sd         =   1.0432144831435E-04
(PID.TID 0000.0001) %MON ad_seaice_adhsalt_del2       =   6.1149690681277E-06
(PID.TID 0000.0001) // =======================================================
(PID.TID 0000.0001) // End AD_MONITOR SEAICE statistics
(PID.TID 0000.0001) // =======================================================
(PID.TID 0000.0001)  MDS_WRITE_FIELD: it,rec,kS,kL,kH=       6     1   1   1   1 file=ADJetan.0000000006
 Calling cg2d from S/R CG2D_MAD
 cg2d: Sum(rhs),rhsMax =   5.81547410596385E-16  6.69604188885099E-02
(PID.TID 0000.0001)       CG2D_MAD cg2d_init_res =   1.30420430634874E+00
(PID.TID 0000.0001)      CG2D_MAD: cg2d_iters(min,last) =      -1      45
(PID.TID 0000.0001)      CG2D_MAD: cg2d_last_res =   5.52866200082778E-14
(PID.TID 0000.0001)  MDS_WRITE_FIELD: it,rec,kS,kL,kH=       5     1   1   1   1 file=ADJtaux.0000000005
(PID.TID 0000.0001)  MDS_WRITE_FIELD: it,rec,kS,kL,kH=       5     1   1   1   1 file=ADJtauy.0000000005
(PID.TID 0000.0001)  MDS_WRITE_FIELD: it,rec,kS,kL,kH=       5     1   1   1   1 file=ADJqnet.0000000005
(PID.TID 0000.0001)  MDS_WRITE_FIELD: it,rec,kS,kL,kH=       5     1   1   1   1 file=ADJempr.0000000005
(PID.TID 0000.0001)  MDS_WRITE_FIELD: it,rec,kS,kL,kH=       5     1   1   1   1 file=ADJqsw.0000000005
(PID.TID 0000.0001)  MDS_WRITE_FIELD: it,rec,kS,kL,kH=       5     1  23   1  23 file=ADJtheta.0000000005
(PID.TID 0000.0001)  MDS_WRITE_FIELD: it,rec,kS,kL,kH=       5     1  23   1  23 file=ADJsalt.0000000005
(PID.TID 0000.0001)  MDS_WRITE_FIELD: it,rec,kS,kL,kH=       5     1  23   1  23 file=ADJwvel.0000000005
(PID.TID 0000.0001)  MDS_WRITE_FIELD: it,rec,kS,kL,kH=       5     1  23   1  23 file=ADJuvel.0000000005
(PID.TID 0000.0001)  MDS_WRITE_FIELD: it,rec,kS,kL,kH=       5     1  23   1  23 file=ADJvvel.0000000005
(PID.TID 0000.0001)  MDS_WRITE_FIELD: it,rec,kS,kL,kH=       5     1   1   1   1 file=ADJarea.0000000005
(PID.TID 0000.0001)  MDS_WRITE_FIELD: it,rec,kS,kL,kH=       5     1   1   1   1 file=ADJheff.0000000005
(PID.TID 0000.0001)  MDS_WRITE_FIELD: it,rec,kS,kL,kH=       5     1   1   1   1 file=ADJhsnow.0000000005
(PID.TID 0000.0001)  MDS_WRITE_FIELD: it,rec,kS,kL,kH=       5     1   1   1   1 file=ADJuice.0000000005
(PID.TID 0000.0001)  MDS_WRITE_FIELD: it,rec,kS,kL,kH=       5     1   1   1   1 file=ADJvice.0000000005
(PID.TID 0000.0001)  MDS_WRITE_FIELD: it,rec,kS,kL,kH=       5     1   1   1   1 file=ADJustress.0000000005
(PID.TID 0000.0001)  MDS_WRITE_FIELD: it,rec,kS,kL,kH=       5     1   1   1   1 file=ADJvstress.0000000005
(PID.TID 0000.0001)  MDS_WRITE_FIELD: it,rec,kS,kL,kH=       5     1   1   1   1 file=ADJhflux.0000000005
(PID.TID 0000.0001)  MDS_WRITE_FIELD: it,rec,kS,kL,kH=       5     1   1   1   1 file=ADJsflux.0000000005
(PID.TID 0000.0001)  MDS_WRITE_FIELD: it,rec,kS,kL,kH=       5     1   1   1   1 file=ADJatemp.0000000005
(PID.TID 0000.0001)  MDS_WRITE_FIELD: it,rec,kS,kL,kH=       5     1   1   1   1 file=ADJaqh.0000000005
(PID.TID 0000.0001)  MDS_WRITE_FIELD: it,rec,kS,kL,kH=       5     1   1   1   1 file=ADJprecip.0000000005
(PID.TID 0000.0001)  MDS_WRITE_FIELD: it,rec,kS,kL,kH=       5     1   1   1   1 file=ADJrunoff.0000000005
(PID.TID 0000.0001)  MDS_WRITE_FIELD: it,rec,kS,kL,kH=       5     1   1   1   1 file=ADJuwind.0000000005
(PID.TID 0000.0001)  MDS_WRITE_FIELD: it,rec,kS,kL,kH=       5     1   1   1   1 file=ADJvwind.0000000005
(PID.TID 0000.0001)  MDS_WRITE_FIELD: it,rec,kS,kL,kH=       5     1   1   1   1 file=ADJswdown.0000000005
(PID.TID 0000.0001)  MDS_WRITE_FIELD: it,rec,kS,kL,kH=       5     1   1   1   1 file=ADJlwdown.0000000005
(PID.TID 0000.0001)  MDS_WRITE_FIELD: it,rec,kS,kL,kH=       5     1   1   1   1 file=ADJclimsst.0000000005
(PID.TID 0000.0001)  MDS_WRITE_FIELD: it,rec,kS,kL,kH=       5     1   1   1   1 file=ADJclimsss.0000000005
(PID.TID 0000.0001)  MDS_READ_FIELD: opening global file: adxx_atemp.effective.0000000001.data
(PID.TID 0000.0001)  MDS_WRITE_FIELD: it,rec,kS,kL,kH=       1    -2  23   1   1 file=adxx_atemp.effective.0000000001
(PID.TID 0000.0001)  MDS_READ_FIELD: opening global file: adxx_atemp.effective.0000000001.data
(PID.TID 0000.0001)  MDS_WRITE_FIELD: it,rec,kS,kL,kH=       1    -1  23   1   1 file=adxx_atemp.effective.0000000001
(PID.TID 0000.0001) S/R ADAUTODIFF_INADMODE_UNSET: useKPP    =    T
(PID.TID 0000.0001) S/R ADAUTODIFF_INADMODE_UNSET: useGMRedi =    T
(PID.TID 0000.0001) S/R ADAUTODIFF_INADMODE_UNSET: useSEAICE =    T
(PID.TID 0000.0001) S/R ADAUTODIFF_INADMODE_UNSET: useGGL90    =    F
(PID.TID 0000.0001) S/R ADAUTODIFF_INADMODE_UNSET: useSALT_PLUME    =    F
(PID.TID 0000.0001) S/R ADAUTODIFF_INADMODE_UNSET: viscFacAdj = 1.00000000000000E+00
(PID.TID 0000.0001)  MDS_READ_FIELD: opening global file: adm_sst_step.0000000001.data
(PID.TID 0000.0001)  MDS_WRITE_FIELD: it,rec,kS,kL,kH=       1    -1  23   1   1 file=adm_sst_step.0000000001
(PID.TID 0000.0001)  MDS_READ_META: opening file: pickup.0000000005.meta
(PID.TID 0000.0001)  nRecords = 141 ; filePrec =  64 ; fileIter =         5
(PID.TID 0000.0001)     nDims =   2 , dims:
(PID.TID 0000.0001)    1:  20   1  20
(PID.TID 0000.0001)    2:  16   1  16
(PID.TID 0000.0001)     nFlds =   9 , nFl3D =   6 , fields:
(PID.TID 0000.0001)  >Uvel    < >Vvel    < >Theta   < >Salt    < >GuNm1   < >GvNm1   < >EtaN    < >dEtaHdt < >EtaH    <
(PID.TID 0000.0001) missingVal=  1.00000000000000E+00 ; nTimRec =   1 , timeList:
(PID.TID 0000.0001)   1.800000000000E+04
(PID.TID 0000.0001) READ_MFLDS_3D_RL: read field: "Uvel    ", #   1 in fldList, rec=   1
(PID.TID 0000.0001)  MDS_READ_FIELD: opening global file: pickup.0000000005.data
(PID.TID 0000.0001) READ_MFLDS_3D_RL: read field: "Vvel    ", #   2 in fldList, rec=   2
(PID.TID 0000.0001)  MDS_READ_FIELD: opening global file: pickup.0000000005.data
(PID.TID 0000.0001) READ_MFLDS_3D_RL: read field: "Theta   ", #   3 in fldList, rec=   3
(PID.TID 0000.0001)  MDS_READ_FIELD: opening global file: pickup.0000000005.data
(PID.TID 0000.0001) READ_MFLDS_3D_RL: read field: "Salt    ", #   4 in fldList, rec=   4
(PID.TID 0000.0001)  MDS_READ_FIELD: opening global file: pickup.0000000005.data
(PID.TID 0000.0001) READ_MFLDS_3D_RL: read field: "GuNm1   ", #   5 in fldList, rec=   5
(PID.TID 0000.0001)  MDS_READ_FIELD: opening global file: pickup.0000000005.data
(PID.TID 0000.0001) READ_MFLDS_3D_RL: read field: "GvNm1   ", #   6 in fldList, rec=   6
(PID.TID 0000.0001)  MDS_READ_FIELD: opening global file: pickup.0000000005.data
(PID.TID 0000.0001) READ_MFLDS_3D_RL: read field: "EtaN    ", #   7 in fldList, rec= 139
(PID.TID 0000.0001)  MDS_READ_FIELD: opening global file: pickup.0000000005.data
(PID.TID 0000.0001) READ_MFLDS_CHECK: - normal end ; reset MFLDS file-name: pickup.0000000005
(PID.TID 0000.0001) // =======================================================
(PID.TID 0000.0001) // Begin AD_MONITOR dynamic field statistics
(PID.TID 0000.0001) // =======================================================
(PID.TID 0000.0001) %MON ad_time_tsnumber             =                     5
(PID.TID 0000.0001) %MON ad_time_secondsf             =   1.8000000000000E+04
(PID.TID 0000.0001) %MON ad_dynstat_adeta_max         =   7.6638302394038E+03
(PID.TID 0000.0001) %MON ad_dynstat_adeta_min         =  -1.4217678314568E+04
(PID.TID 0000.0001) %MON ad_dynstat_adeta_mean        =  -2.3400009546538E+00
(PID.TID 0000.0001) %MON ad_dynstat_adeta_sd          =   1.9228024749852E+03
(PID.TID 0000.0001) %MON ad_dynstat_adeta_del2        =   4.4322997685940E+02
(PID.TID 0000.0001) %MON ad_dynstat_aduvel_max        =   4.4998235090766E+05
(PID.TID 0000.0001) %MON ad_dynstat_aduvel_min        =  -3.5437219822451E+05
(PID.TID 0000.0001) %MON ad_dynstat_aduvel_mean       =   2.0992566569820E+01
(PID.TID 0000.0001) %MON ad_dynstat_aduvel_sd         =   6.7646750483369E+03
(PID.TID 0000.0001) %MON ad_dynstat_aduvel_del2       =   1.2021774047570E+03
(PID.TID 0000.0001) %MON ad_dynstat_advvel_max        =   6.1109615742559E+05
(PID.TID 0000.0001) %MON ad_dynstat_advvel_min        =  -6.9919934906393E+05
(PID.TID 0000.0001) %MON ad_dynstat_advvel_mean       =   4.7850136741943E+00
(PID.TID 0000.0001) %MON ad_dynstat_advvel_sd         =   1.0208134092040E+04
(PID.TID 0000.0001) %MON ad_dynstat_advvel_del2       =   2.0333534677258E+03
(PID.TID 0000.0001) %MON ad_dynstat_adwvel_max        =   2.2729291025676E+05
(PID.TID 0000.0001) %MON ad_dynstat_adwvel_min        =  -3.2899370443281E+05
(PID.TID 0000.0001) %MON ad_dynstat_adwvel_mean       =   2.9201515466359E+00
(PID.TID 0000.0001) %MON ad_dynstat_adwvel_sd         =   3.5155269880321E+03
(PID.TID 0000.0001) %MON ad_dynstat_adwvel_del2       =   7.2726793435018E+02
(PID.TID 0000.0001) %MON ad_dynstat_adtheta_max       =   2.7945198464585E+03
(PID.TID 0000.0001) %MON ad_dynstat_adtheta_min       =  -4.5284182726961E+03
(PID.TID 0000.0001) %MON ad_dynstat_adtheta_mean      =  -1.2516460743779E-01
(PID.TID 0000.0001) %MON ad_dynstat_adtheta_sd        =   3.9941086778733E+01
(PID.TID 0000.0001) %MON ad_dynstat_adtheta_del2      =   9.1705371011311E+00
(PID.TID 0000.0001) %MON ad_dynstat_adsalt_max        =   2.1924254666494E+02
(PID.TID 0000.0001) %MON ad_dynstat_adsalt_min        =  -3.4207111251608E+02
(PID.TID 0000.0001) %MON ad_dynstat_adsalt_mean       =  -4.6515748502174E-02
(PID.TID 0000.0001) %MON ad_dynstat_adsalt_sd         =   3.9770763917052E+01
(PID.TID 0000.0001) %MON ad_dynstat_adsalt_del2       =   1.8799401987762E+00
(PID.TID 0000.0001) %MON ad_dynstat_adsst_max         =   2.7945198464585E+03
(PID.TID 0000.0001) %MON ad_dynstat_adsst_min         =  -4.5284182726961E+03
(PID.TID 0000.0001) %MON ad_dynstat_adsst_mean        =  -1.9543070031106E+01
(PID.TID 0000.0001) %MON ad_dynstat_adsst_sd          =   4.8065174737933E+02
(PID.TID 0000.0001) %MON ad_dynstat_adsst_del2        =   1.1366020219628E+02
(PID.TID 0000.0001) %MON ad_dynstat_adsss_max         =   6.1140413760845E+00
(PID.TID 0000.0001) %MON ad_dynstat_adsss_min         =  -1.1763115433599E+01
(PID.TID 0000.0001) %MON ad_dynstat_adsss_mean        =  -6.3520918874375E-03
(PID.TID 0000.0001) %MON ad_dynstat_adsss_sd          =   1.4404361983818E+00
(PID.TID 0000.0001) %MON ad_dynstat_adsss_del2        =   4.4289521842896E-01
(PID.TID 0000.0001) // =======================================================
(PID.TID 0000.0001) // End AD_MONITOR dynamic field statistics
(PID.TID 0000.0001) // =======================================================
(PID.TID 0000.0001) // =======================================================
(PID.TID 0000.0001) // Begin AD_MONITOR SEAICE statistics
(PID.TID 0000.0001) // =======================================================
(PID.TID 0000.0001) %MON ad_seaice_tsnumber           =                     5
(PID.TID 0000.0001) %MON ad_seaice_time_sec           =   1.8000000000000E+04
(PID.TID 0000.0001) %MON ad_seaice_aduice_max         =   5.3432995792540E+07
(PID.TID 0000.0001) %MON ad_seaice_aduice_min         =  -5.0620506351709E+07
(PID.TID 0000.0001) %MON ad_seaice_aduice_mean        =  -3.8142216627634E+03
(PID.TID 0000.0001) %MON ad_seaice_aduice_sd          =   7.2300927974137E+06
(PID.TID 0000.0001) %MON ad_seaice_aduice_del2        =   2.2686035070468E+06
(PID.TID 0000.0001) %MON ad_seaice_advice_max         =   4.8364898977322E+07
(PID.TID 0000.0001) %MON ad_seaice_advice_min         =  -5.5030915209389E+07
(PID.TID 0000.0001) %MON ad_seaice_advice_mean        =  -4.9063843185891E+04
(PID.TID 0000.0001) %MON ad_seaice_advice_sd          =   7.4511713923819E+06
(PID.TID 0000.0001) %MON ad_seaice_advice_del2        =   2.3659456836593E+06
(PID.TID 0000.0001) %MON ad_seaice_adarea_max         =   3.4591139138092E+06
(PID.TID 0000.0001) %MON ad_seaice_adarea_min         =  -1.2125009922863E+07
(PID.TID 0000.0001) %MON ad_seaice_adarea_mean        =  -6.4988310032173E+04
(PID.TID 0000.0001) %MON ad_seaice_adarea_sd          =   1.1913543661938E+06
(PID.TID 0000.0001) %MON ad_seaice_adarea_del2        =   3.1328634502634E+05
(PID.TID 0000.0001) %MON ad_seaice_adheff_max         =   1.3327659011427E+06
(PID.TID 0000.0001) %MON ad_seaice_adheff_min         =  -8.0009830191443E+06
(PID.TID 0000.0001) %MON ad_seaice_adheff_mean        =  -5.2576175493961E+04
(PID.TID 0000.0001) %MON ad_seaice_adheff_sd          =   7.3766220115444E+05
(PID.TID 0000.0001) %MON ad_seaice_adheff_del2        =   1.9193854295168E+05
(PID.TID 0000.0001) %MON ad_seaice_adhsnow_max        =   1.5144773116911E+04
(PID.TID 0000.0001) %MON ad_seaice_adhsnow_min        =  -9.2873215406011E+03
(PID.TID 0000.0001) %MON ad_seaice_adhsnow_mean       =   6.3165102304129E+01
(PID.TID 0000.0001) %MON ad_seaice_adhsnow_sd         =   1.6056605620864E+03
(PID.TID 0000.0001) %MON ad_seaice_adhsnow_del2       =   3.7939472901302E+02
(PID.TID 0000.0001) %MON ad_seaice_adhsalt_max        =   3.5588093069048E-06
(PID.TID 0000.0001) %MON ad_seaice_adhsalt_min        =  -3.4146573493976E-04
(PID.TID 0000.0001) %MON ad_seaice_adhsalt_mean       =  -6.8908192455385E-05
(PID.TID 0000.0001) %MON ad_seaice_adhsalt_sd         =   9.8632386027742E-05
(PID.TID 0000.0001) %MON ad_seaice_adhsalt_del2       =   6.6854728298841E-06
(PID.TID 0000.0001) // =======================================================
(PID.TID 0000.0001) // End AD_MONITOR SEAICE statistics
(PID.TID 0000.0001) // =======================================================
(PID.TID 0000.0001)  MDS_WRITE_FIELD: it,rec,kS,kL,kH=       5     1   1   1   1 file=ADJetan.0000000005
(PID.TID 0000.0001)  MDS_READ_META: opening file: pickup_seaice.0000000005.meta
(PID.TID 0000.0001)  nRecords =  13 ; filePrec =  64 ; fileIter =         5
(PID.TID 0000.0001)     nDims =   2 , dims:
(PID.TID 0000.0001)    1:  20   1  20
(PID.TID 0000.0001)    2:  16   1  16
(PID.TID 0000.0001)     nFlds =   7 , nFl3D =   1 , fields:
(PID.TID 0000.0001)  >siTICES < >siAREA  < >siHEFF  < >siHSNOW < >siHSALT < >siUICE  < >siVICE  <
(PID.TID 0000.0001) missingVal=  1.00000000000000E+00 ; nTimRec =   1 , timeList:
(PID.TID 0000.0001)   1.800000000000E+04
(PID.TID 0000.0001) READ_MFLDS_3D_RL: read field: "siTICES ", #   1 in fldList, rec=   1
(PID.TID 0000.0001)  MDS_READ_FIELD: opening global file: pickup_seaice.0000000005.data
(PID.TID 0000.0001) READ_MFLDS_3D_RL: read field: "siAREA  ", #   2 in fldList, rec=   8
(PID.TID 0000.0001)  MDS_READ_FIELD: opening global file: pickup_seaice.0000000005.data
(PID.TID 0000.0001) READ_MFLDS_3D_RL: read field: "siHEFF  ", #   3 in fldList, rec=   9
(PID.TID 0000.0001)  MDS_READ_FIELD: opening global file: pickup_seaice.0000000005.data
(PID.TID 0000.0001) READ_MFLDS_3D_RL: read field: "siHSNOW ", #   4 in fldList, rec=  10
(PID.TID 0000.0001)  MDS_READ_FIELD: opening global file: pickup_seaice.0000000005.data
(PID.TID 0000.0001) READ_MFLDS_3D_RL: read field: "siHSALT ", #   5 in fldList, rec=  11
(PID.TID 0000.0001)  MDS_READ_FIELD: opening global file: pickup_seaice.0000000005.data
(PID.TID 0000.0001) READ_MFLDS_3D_RL: read field: "siUICE  ", #   6 in fldList, rec=  12
(PID.TID 0000.0001)  MDS_READ_FIELD: opening global file: pickup_seaice.0000000005.data
(PID.TID 0000.0001) READ_MFLDS_3D_RL: read field: "siVICE  ", #   7 in fldList, rec=  13
(PID.TID 0000.0001)  MDS_READ_FIELD: opening global file: pickup_seaice.0000000005.data
(PID.TID 0000.0001) READ_MFLDS_CHECK: - normal end ; reset MFLDS file-name: pickup_seaice.0000000005
(PID.TID 0000.0001) CTRL_INIT_REC: Getting record indices for xx_atemp
(PID.TID 0000.0001) CTRL_INIT_REC: Record indices for xx_atemp:
(PID.TID 0000.0001) CTRL_INIT_REC: startrec =          6, endrec =         11
(PID.TID 0000.0001)  MDS_READ_FIELD: opening global file: xx_atemp.effective.0000000001.data
(PID.TID 0000.0001)  MDS_READ_FIELD: opening global file: ones_64b.bin
(PID.TID 0000.0001)  MDS_READ_FIELD: opening global file: adxx_atemp.effective.0000000001.data
(PID.TID 0000.0001)  MDS_WRITE_FIELD: it,rec,kS,kL,kH=       1    -6  23   1   1 file=adxx_atemp.effective.0000000001
(PID.TID 0000.0001)  MDS_READ_FIELD: opening global file: adxx_atemp.effective.0000000001.data
(PID.TID 0000.0001)  MDS_WRITE_FIELD: it,rec,kS,kL,kH=       1    -6  23   1   1 file=adxx_atemp.effective.0000000001
(PID.TID 0000.0001)  MDS_READ_FIELD: opening global file: xx_atemp.effective.0000000001.data
(PID.TID 0000.0001)  MDS_READ_FIELD: opening global file: ones_64b.bin
(PID.TID 0000.0001)  MDS_READ_FIELD: opening global file: adxx_atemp.effective.0000000001.data
(PID.TID 0000.0001)  MDS_WRITE_FIELD: it,rec,kS,kL,kH=       1    -5  23   1   1 file=adxx_atemp.effective.0000000001
(PID.TID 0000.0001)  MDS_READ_FIELD: opening global file: adxx_atemp.effective.0000000001.data
(PID.TID 0000.0001)  MDS_WRITE_FIELD: it,rec,kS,kL,kH=       1    -5  23   1   1 file=adxx_atemp.effective.0000000001
(PID.TID 0000.0001)  MDS_READ_FIELD: opening global file: xx_atemp.effective.0000000001.data
(PID.TID 0000.0001)  MDS_READ_FIELD: opening global file: ones_64b.bin
(PID.TID 0000.0001)  MDS_READ_FIELD: opening global file: adxx_atemp.effective.0000000001.data
(PID.TID 0000.0001)  MDS_WRITE_FIELD: it,rec,kS,kL,kH=       1    -4  23   1   1 file=adxx_atemp.effective.0000000001
(PID.TID 0000.0001)  MDS_READ_FIELD: opening global file: adxx_atemp.effective.0000000001.data
(PID.TID 0000.0001)  MDS_WRITE_FIELD: it,rec,kS,kL,kH=       1    -4  23   1   1 file=adxx_atemp.effective.0000000001
(PID.TID 0000.0001)  MDS_READ_FIELD: opening global file: xx_atemp.effective.0000000001.data
(PID.TID 0000.0001)  MDS_READ_FIELD: opening global file: ones_64b.bin
(PID.TID 0000.0001)  MDS_READ_FIELD: opening global file: adxx_atemp.effective.0000000001.data
(PID.TID 0000.0001)  MDS_WRITE_FIELD: it,rec,kS,kL,kH=       1    -3  23   1   1 file=adxx_atemp.effective.0000000001
(PID.TID 0000.0001)  MDS_READ_FIELD: opening global file: adxx_atemp.effective.0000000001.data
(PID.TID 0000.0001)  MDS_WRITE_FIELD: it,rec,kS,kL,kH=       1    -3  23   1   1 file=adxx_atemp.effective.0000000001
(PID.TID 0000.0001)  MDS_READ_FIELD: opening global file: xx_atemp.effective.0000000001.data
(PID.TID 0000.0001)  MDS_READ_FIELD: opening global file: ones_64b.bin
(PID.TID 0000.0001)  MDS_READ_FIELD: opening global file: adxx_atemp.effective.0000000001.data
(PID.TID 0000.0001)  MDS_WRITE_FIELD: it,rec,kS,kL,kH=       1    -2  23   1   1 file=adxx_atemp.effective.0000000001
(PID.TID 0000.0001)  MDS_READ_FIELD: opening global file: adxx_atemp.effective.0000000001.data
(PID.TID 0000.0001)  MDS_WRITE_FIELD: it,rec,kS,kL,kH=       1    -2  23   1   1 file=adxx_atemp.effective.0000000001
(PID.TID 0000.0001)  MDS_READ_FIELD: opening global file: xx_atemp.effective.0000000001.data
(PID.TID 0000.0001)  MDS_READ_FIELD: opening global file: ones_64b.bin
(PID.TID 0000.0001)  MDS_READ_FIELD: opening global file: adxx_atemp.effective.0000000001.data
(PID.TID 0000.0001)  MDS_WRITE_FIELD: it,rec,kS,kL,kH=       1    -1  23   1   1 file=adxx_atemp.effective.0000000001
(PID.TID 0000.0001)  MDS_READ_FIELD: opening global file: adxx_atemp.effective.0000000001.data
(PID.TID 0000.0001)  MDS_WRITE_FIELD: it,rec,kS,kL,kH=       1    -1  23   1   1 file=adxx_atemp.effective.0000000001
(PID.TID 0000.0001)  MDS_READ_FIELD: opening global file: adxx_atemp.effective.0000000001.data
(PID.TID 0000.0001)  MDS_WRITE_FIELD: it,rec,kS,kL,kH=       1    -6  23   1   1 file=adxx_atemp.effective.0000000001
(PID.TID 0000.0001)  MDS_READ_FIELD: opening global file: adxx_atemp.0000000001.data
(PID.TID 0000.0001)  MDS_WRITE_FIELD: it,rec,kS,kL,kH=       1   -11  23   1   1 file=adxx_atemp.0000000001
(PID.TID 0000.0001)  MDS_READ_FIELD: opening global file: adxx_atemp.effective.0000000001.data
(PID.TID 0000.0001)  MDS_WRITE_FIELD: it,rec,kS,kL,kH=       1    -5  23   1   1 file=adxx_atemp.effective.0000000001
(PID.TID 0000.0001)  MDS_READ_FIELD: opening global file: adxx_atemp.0000000001.data
(PID.TID 0000.0001)  MDS_WRITE_FIELD: it,rec,kS,kL,kH=       1   -10  23   1   1 file=adxx_atemp.0000000001
(PID.TID 0000.0001)  MDS_READ_FIELD: opening global file: adxx_atemp.effective.0000000001.data
(PID.TID 0000.0001)  MDS_WRITE_FIELD: it,rec,kS,kL,kH=       1    -4  23   1   1 file=adxx_atemp.effective.0000000001
(PID.TID 0000.0001)  MDS_READ_FIELD: opening global file: adxx_atemp.0000000001.data
(PID.TID 0000.0001)  MDS_WRITE_FIELD: it,rec,kS,kL,kH=       1    -9  23   1   1 file=adxx_atemp.0000000001
(PID.TID 0000.0001)  MDS_READ_FIELD: opening global file: adxx_atemp.effective.0000000001.data
(PID.TID 0000.0001)  MDS_WRITE_FIELD: it,rec,kS,kL,kH=       1    -3  23   1   1 file=adxx_atemp.effective.0000000001
(PID.TID 0000.0001)  MDS_READ_FIELD: opening global file: adxx_atemp.0000000001.data
(PID.TID 0000.0001)  MDS_WRITE_FIELD: it,rec,kS,kL,kH=       1    -8  23   1   1 file=adxx_atemp.0000000001
(PID.TID 0000.0001)  MDS_READ_FIELD: opening global file: adxx_atemp.effective.0000000001.data
(PID.TID 0000.0001)  MDS_WRITE_FIELD: it,rec,kS,kL,kH=       1    -2  23   1   1 file=adxx_atemp.effective.0000000001
(PID.TID 0000.0001)  MDS_READ_FIELD: opening global file: adxx_atemp.0000000001.data
(PID.TID 0000.0001)  MDS_WRITE_FIELD: it,rec,kS,kL,kH=       1    -7  23   1   1 file=adxx_atemp.0000000001
(PID.TID 0000.0001)  MDS_READ_FIELD: opening global file: adxx_atemp.effective.0000000001.data
(PID.TID 0000.0001)  MDS_WRITE_FIELD: it,rec,kS,kL,kH=       1    -1  23   1   1 file=adxx_atemp.effective.0000000001
(PID.TID 0000.0001)  MDS_READ_FIELD: opening global file: adxx_atemp.0000000001.data
(PID.TID 0000.0001)  MDS_WRITE_FIELD: it,rec,kS,kL,kH=       1    -6  23   1   1 file=adxx_atemp.0000000001
(PID.TID 0000.0001) // =======================================================
(PID.TID 0000.0001) // Gradient-check starts (grdchk_main)
(PID.TID 0000.0001) // =======================================================
(PID.TID 0000.0001) grdchk reference fc: fcref       =  5.27453128215446E+03
grad-res -------------------------------
 grad-res  proc    #    i    j    k   bi   bj iobc       fc ref            fc + eps           fc - eps
 grad-res  proc    #    i    j    k   bi   bj iobc      adj grad            fd grad          1 - fd/adj
 grad-res closest next position: 
 grad-res     0   75    4    8    1    1    1
(PID.TID 0000.0001) ====== Starts gradient-check number   1 (=ichknum) =======
 ph-test icomp, ncvarcomp, ichknum           75        1650           1
 ph-grd _loc: bi, bj, icomptest, ichknum            1           1           0           1
 ph-grd -->hit<--            6           8           1           1
(PID.TID 0000.0001) grdchk pos: i,j,k=    6    8    1 ; bi,bj=   1   1 ; iobc=  1 ; rec=   1
(PID.TID 0000.0001)  MDS_READ_FIELD: opening global file: adxx_atemp.0000000001.data
(PID.TID 0000.0001)  MDS_READ_FIELD: opening global file: xx_atemp.0000000001.data
(PID.TID 0000.0001)  MDS_WRITE_FIELD: it,rec,kS,kL,kH=       1     1   1   1   1 file=xx_atemp.0000000001
(PID.TID 0000.0001)  MDS_READ_META: opening file: pickup.0000000005.meta
(PID.TID 0000.0001)  nRecords = 141 ; filePrec =  64 ; fileIter =         5
(PID.TID 0000.0001)     nDims =   2 , dims:
(PID.TID 0000.0001)    1:  20   1  20
(PID.TID 0000.0001)    2:  16   1  16
(PID.TID 0000.0001)     nFlds =   9 , nFl3D =   6 , fields:
(PID.TID 0000.0001)  >Uvel    < >Vvel    < >Theta   < >Salt    < >GuNm1   < >GvNm1   < >EtaN    < >dEtaHdt < >EtaH    <
(PID.TID 0000.0001) missingVal=  1.00000000000000E+00 ; nTimRec =   1 , timeList:
(PID.TID 0000.0001)   1.800000000000E+04
(PID.TID 0000.0001) READ_MFLDS_3D_RL: read field: "Uvel    ", #   1 in fldList, rec=   1
(PID.TID 0000.0001)  MDS_READ_FIELD: opening global file: pickup.0000000005.data
(PID.TID 0000.0001) READ_MFLDS_3D_RL: read field: "Vvel    ", #   2 in fldList, rec=   2
(PID.TID 0000.0001)  MDS_READ_FIELD: opening global file: pickup.0000000005.data
(PID.TID 0000.0001) READ_MFLDS_3D_RL: read field: "Theta   ", #   3 in fldList, rec=   3
(PID.TID 0000.0001)  MDS_READ_FIELD: opening global file: pickup.0000000005.data
(PID.TID 0000.0001) READ_MFLDS_3D_RL: read field: "Salt    ", #   4 in fldList, rec=   4
(PID.TID 0000.0001)  MDS_READ_FIELD: opening global file: pickup.0000000005.data
(PID.TID 0000.0001) READ_MFLDS_3D_RL: read field: "GuNm1   ", #   5 in fldList, rec=   5
(PID.TID 0000.0001)  MDS_READ_FIELD: opening global file: pickup.0000000005.data
(PID.TID 0000.0001) READ_MFLDS_3D_RL: read field: "GvNm1   ", #   6 in fldList, rec=   6
(PID.TID 0000.0001)  MDS_READ_FIELD: opening global file: pickup.0000000005.data
(PID.TID 0000.0001) READ_MFLDS_3D_RL: read field: "EtaN    ", #   7 in fldList, rec= 139
(PID.TID 0000.0001)  MDS_READ_FIELD: opening global file: pickup.0000000005.data
(PID.TID 0000.0001) READ_MFLDS_CHECK: - normal end ; reset MFLDS file-name: pickup.0000000005
(PID.TID 0000.0001)  MDS_READ_FIELD: opening global file: pickup_cd.0000000005.data
(PID.TID 0000.0001)  MDS_READ_FIELD: opening global file: pickup_cd.0000000005.data
(PID.TID 0000.0001)  MDS_READ_FIELD: opening global file: pickup_cd.0000000005.data
(PID.TID 0000.0001)  MDS_READ_FIELD: opening global file: pickup_cd.0000000005.data
(PID.TID 0000.0001)  MDS_READ_FIELD: opening global file: pickup_cd.0000000005.data
(PID.TID 0000.0001)  MDS_READ_META: opening file: pickup_seaice.0000000005.meta
(PID.TID 0000.0001)  nRecords =  13 ; filePrec =  64 ; fileIter =         5
(PID.TID 0000.0001)     nDims =   2 , dims:
(PID.TID 0000.0001)    1:  20   1  20
(PID.TID 0000.0001)    2:  16   1  16
(PID.TID 0000.0001)     nFlds =   7 , nFl3D =   1 , fields:
(PID.TID 0000.0001)  >siTICES < >siAREA  < >siHEFF  < >siHSNOW < >siHSALT < >siUICE  < >siVICE  <
(PID.TID 0000.0001) missingVal=  1.00000000000000E+00 ; nTimRec =   1 , timeList:
(PID.TID 0000.0001)   1.800000000000E+04
(PID.TID 0000.0001) READ_MFLDS_3D_RL: read field: "siTICES ", #   1 in fldList, rec=   1
(PID.TID 0000.0001)  MDS_READ_FIELD: opening global file: pickup_seaice.0000000005.data
(PID.TID 0000.0001) READ_MFLDS_3D_RL: read field: "siAREA  ", #   2 in fldList, rec=   8
(PID.TID 0000.0001)  MDS_READ_FIELD: opening global file: pickup_seaice.0000000005.data
(PID.TID 0000.0001) READ_MFLDS_3D_RL: read field: "siHEFF  ", #   3 in fldList, rec=   9
(PID.TID 0000.0001)  MDS_READ_FIELD: opening global file: pickup_seaice.0000000005.data
(PID.TID 0000.0001) READ_MFLDS_3D_RL: read field: "siHSNOW ", #   4 in fldList, rec=  10
(PID.TID 0000.0001)  MDS_READ_FIELD: opening global file: pickup_seaice.0000000005.data
(PID.TID 0000.0001) READ_MFLDS_3D_RL: read field: "siHSALT ", #   5 in fldList, rec=  11
(PID.TID 0000.0001)  MDS_READ_FIELD: opening global file: pickup_seaice.0000000005.data
(PID.TID 0000.0001) READ_MFLDS_3D_RL: read field: "siUICE  ", #   6 in fldList, rec=  12
(PID.TID 0000.0001)  MDS_READ_FIELD: opening global file: pickup_seaice.0000000005.data
(PID.TID 0000.0001) READ_MFLDS_3D_RL: read field: "siVICE  ", #   7 in fldList, rec=  13
(PID.TID 0000.0001)  MDS_READ_FIELD: opening global file: pickup_seaice.0000000005.data
(PID.TID 0000.0001) READ_MFLDS_CHECK: - normal end ; reset MFLDS file-name: pickup_seaice.0000000005
(PID.TID 0000.0001) CTRL_INIT_REC: Getting record indices for xx_atemp
(PID.TID 0000.0001) CTRL_INIT_REC: Record indices for xx_atemp:
(PID.TID 0000.0001) CTRL_INIT_REC: startrec =          6, endrec =         11
(PID.TID 0000.0001)  MDS_READ_FIELD: opening global file: xx_atemp.0000000001.data
(PID.TID 0000.0001)  MDS_WRITE_FIELD: it,rec,kS,kL,kH=       1     1   1   1   1 file=xx_atemp.effective.0000000001
(PID.TID 0000.0001)  MDS_READ_FIELD: opening global file: xx_atemp.0000000001.data
(PID.TID 0000.0001)  MDS_WRITE_FIELD: it,rec,kS,kL,kH=       1     2   1   1   1 file=xx_atemp.effective.0000000001
(PID.TID 0000.0001)  MDS_READ_FIELD: opening global file: xx_atemp.0000000001.data
(PID.TID 0000.0001)  MDS_WRITE_FIELD: it,rec,kS,kL,kH=       1     3   1   1   1 file=xx_atemp.effective.0000000001
(PID.TID 0000.0001)  MDS_READ_FIELD: opening global file: xx_atemp.0000000001.data
(PID.TID 0000.0001)  MDS_WRITE_FIELD: it,rec,kS,kL,kH=       1     4   1   1   1 file=xx_atemp.effective.0000000001
(PID.TID 0000.0001)  MDS_READ_FIELD: opening global file: xx_atemp.0000000001.data
(PID.TID 0000.0001)  MDS_WRITE_FIELD: it,rec,kS,kL,kH=       1     5   1   1   1 file=xx_atemp.effective.0000000001
(PID.TID 0000.0001)  MDS_READ_FIELD: opening global file: xx_atemp.0000000001.data
(PID.TID 0000.0001)  MDS_WRITE_FIELD: it,rec,kS,kL,kH=       1     6   1   1   1 file=xx_atemp.effective.0000000001
(PID.TID 0000.0001)  MDS_READ_FIELD: opening global file: xx_atemp.effective.0000000001.data
(PID.TID 0000.0001)  MDS_READ_FIELD: opening global file: ones_64b.bin
(PID.TID 0000.0001)  MDS_WRITE_FIELD: it,rec,kS,kL,kH=       1     1   1   1   1 file=xx_atemp.effective.0000000001
(PID.TID 0000.0001)  MDS_READ_FIELD: opening global file: xx_atemp.effective.0000000001.data
(PID.TID 0000.0001)  MDS_READ_FIELD: opening global file: ones_64b.bin
(PID.TID 0000.0001)  MDS_WRITE_FIELD: it,rec,kS,kL,kH=       1     2   1   1   1 file=xx_atemp.effective.0000000001
(PID.TID 0000.0001)  MDS_READ_FIELD: opening global file: xx_atemp.effective.0000000001.data
(PID.TID 0000.0001)  MDS_READ_FIELD: opening global file: ones_64b.bin
(PID.TID 0000.0001)  MDS_WRITE_FIELD: it,rec,kS,kL,kH=       1     3   1   1   1 file=xx_atemp.effective.0000000001
(PID.TID 0000.0001)  MDS_READ_FIELD: opening global file: xx_atemp.effective.0000000001.data
(PID.TID 0000.0001)  MDS_READ_FIELD: opening global file: ones_64b.bin
(PID.TID 0000.0001)  MDS_WRITE_FIELD: it,rec,kS,kL,kH=       1     4   1   1   1 file=xx_atemp.effective.0000000001
(PID.TID 0000.0001)  MDS_READ_FIELD: opening global file: xx_atemp.effective.0000000001.data
(PID.TID 0000.0001)  MDS_READ_FIELD: opening global file: ones_64b.bin
(PID.TID 0000.0001)  MDS_WRITE_FIELD: it,rec,kS,kL,kH=       1     5   1   1   1 file=xx_atemp.effective.0000000001
(PID.TID 0000.0001)  MDS_READ_FIELD: opening global file: xx_atemp.effective.0000000001.data
(PID.TID 0000.0001)  MDS_READ_FIELD: opening global file: ones_64b.bin
(PID.TID 0000.0001)  MDS_WRITE_FIELD: it,rec,kS,kL,kH=       1     6   1   1   1 file=xx_atemp.effective.0000000001
(PID.TID 0000.0001) // =======================================================
(PID.TID 0000.0001) // Model current state
(PID.TID 0000.0001) // =======================================================
(PID.TID 0000.0001) 
(PID.TID 0000.0001)  MDS_WRITE_FIELD: it,rec,kS,kL,kH=       1     1   1   1   1 file=m_sst_step.0000000001
(PID.TID 0000.0001)  MDS_READ_FIELD: opening global file: xx_atemp.effective.0000000001.data
(PID.TID 0000.0001)  MDS_READ_FIELD: opening global file: xx_atemp.effective.0000000001.data
(PID.TID 0000.0001) EXF_SET_FLD: processing field "climsss",  file: SSS_monthly.labsea1979
(PID.TID 0000.0001) EXF_SET_FLD:   myIter, count0, count1:         5      1      2
(PID.TID 0000.0001) EXF_SET_FLD:   first, changed, fac:   T   F    0.49316939890710387
(PID.TID 0000.0001) EXF_SET_FLD: field "climsss", it=         5, loading rec=     1
(PID.TID 0000.0001) EXF_SET_FLD:   from file: "SSS_monthly.labsea1979"
(PID.TID 0000.0001)  MDS_READ_FIELD: opening global file: SSS_monthly.labsea1979
(PID.TID 0000.0001) EXF_SET_FLD: field "climsss", it=         5, loading rec=     2
(PID.TID 0000.0001) EXF_SET_FLD:   from file: "SSS_monthly.labsea1979"
(PID.TID 0000.0001)  MDS_READ_FIELD: opening global file: SSS_monthly.labsea1979
(PID.TID 0000.0001) EXF_SET_FLD: processing field "uwind",  file: u10m.labsea1979
(PID.TID 0000.0001) EXF_SET_FLD:   myIter, count0, count1:         5      1      2
(PID.TID 0000.0001) EXF_SET_FLD:   first, changed, fac:   T   F    0.49316939890710387
(PID.TID 0000.0001) EXF_SET_FLD: field "uwind", it=         5, loading rec=     1
(PID.TID 0000.0001) EXF_SET_FLD:   from file: "u10m.labsea1979"
(PID.TID 0000.0001)  MDS_READ_FIELD: opening global file: u10m.labsea1979
(PID.TID 0000.0001) EXF_SET_FLD: field "uwind", it=         5, loading rec=     2
(PID.TID 0000.0001) EXF_SET_FLD:   from file: "u10m.labsea1979"
(PID.TID 0000.0001)  MDS_READ_FIELD: opening global file: u10m.labsea1979
(PID.TID 0000.0001) EXF_SET_FLD: processing field "vwind",  file: v10m.labsea1979
(PID.TID 0000.0001) EXF_SET_FLD:   myIter, count0, count1:         5      1      2
(PID.TID 0000.0001) EXF_SET_FLD:   first, changed, fac:   T   F    0.49316939890710387
(PID.TID 0000.0001) EXF_SET_FLD: field "vwind", it=         5, loading rec=     1
(PID.TID 0000.0001) EXF_SET_FLD:   from file: "v10m.labsea1979"
(PID.TID 0000.0001)  MDS_READ_FIELD: opening global file: v10m.labsea1979
(PID.TID 0000.0001) EXF_SET_FLD: field "vwind", it=         5, loading rec=     2
(PID.TID 0000.0001) EXF_SET_FLD:   from file: "v10m.labsea1979"
(PID.TID 0000.0001)  MDS_READ_FIELD: opening global file: v10m.labsea1979
(PID.TID 0000.0001) EXF_SET_FLD: processing field "atemp",  file: tair.labsea1979
(PID.TID 0000.0001) EXF_SET_FLD:   myIter, count0, count1:         5      1      2
(PID.TID 0000.0001) EXF_SET_FLD:   first, changed, fac:   T   F    0.49316939890710387
(PID.TID 0000.0001) EXF_SET_FLD: field "atemp", it=         5, loading rec=     1
(PID.TID 0000.0001) EXF_SET_FLD:   from file: "tair.labsea1979"
(PID.TID 0000.0001)  MDS_READ_FIELD: opening global file: tair.labsea1979
(PID.TID 0000.0001) EXF_SET_FLD: field "atemp", it=         5, loading rec=     2
(PID.TID 0000.0001) EXF_SET_FLD:   from file: "tair.labsea1979"
(PID.TID 0000.0001)  MDS_READ_FIELD: opening global file: tair.labsea1979
(PID.TID 0000.0001) EXF_SET_FLD: processing field "aqh",  file: qa.labsea1979
(PID.TID 0000.0001) EXF_SET_FLD:   myIter, count0, count1:         5      1      2
(PID.TID 0000.0001) EXF_SET_FLD:   first, changed, fac:   T   F    0.49316939890710387
(PID.TID 0000.0001) EXF_SET_FLD: field "aqh", it=         5, loading rec=     1
(PID.TID 0000.0001) EXF_SET_FLD:   from file: "qa.labsea1979"
(PID.TID 0000.0001)  MDS_READ_FIELD: opening global file: qa.labsea1979
(PID.TID 0000.0001) EXF_SET_FLD: field "aqh", it=         5, loading rec=     2
(PID.TID 0000.0001) EXF_SET_FLD:   from file: "qa.labsea1979"
(PID.TID 0000.0001)  MDS_READ_FIELD: opening global file: qa.labsea1979
(PID.TID 0000.0001) EXF_SET_FLD: processing field "precip",  file: prate.labsea1979
(PID.TID 0000.0001) EXF_SET_FLD:   myIter, count0, count1:         5      1      2
(PID.TID 0000.0001) EXF_SET_FLD:   first, changed, fac:   T   F    0.49316939890710387
(PID.TID 0000.0001) EXF_SET_FLD: field "precip", it=         5, loading rec=     1
(PID.TID 0000.0001) EXF_SET_FLD:   from file: "prate.labsea1979"
(PID.TID 0000.0001)  MDS_READ_FIELD: opening global file: prate.labsea1979
(PID.TID 0000.0001) EXF_SET_FLD: field "precip", it=         5, loading rec=     2
(PID.TID 0000.0001) EXF_SET_FLD:   from file: "prate.labsea1979"
(PID.TID 0000.0001)  MDS_READ_FIELD: opening global file: prate.labsea1979
(PID.TID 0000.0001) EXF_SET_FLD: processing field "swdown",  file: fsh.labsea1979
(PID.TID 0000.0001) EXF_SET_FLD:   myIter, count0, count1:         5      1      2
(PID.TID 0000.0001) EXF_SET_FLD:   first, changed, fac:   T   F    0.49316939890710387
(PID.TID 0000.0001) EXF_SET_FLD: field "swdown", it=         5, loading rec=     1
(PID.TID 0000.0001) EXF_SET_FLD:   from file: "fsh.labsea1979"
(PID.TID 0000.0001)  MDS_READ_FIELD: opening global file: fsh.labsea1979
(PID.TID 0000.0001) EXF_SET_FLD: field "swdown", it=         5, loading rec=     2
(PID.TID 0000.0001) EXF_SET_FLD:   from file: "fsh.labsea1979"
(PID.TID 0000.0001)  MDS_READ_FIELD: opening global file: fsh.labsea1979
(PID.TID 0000.0001) EXF_SET_FLD: processing field "lwdown",  file: flo.labsea1979
(PID.TID 0000.0001) EXF_SET_FLD:   myIter, count0, count1:         5      1      2
(PID.TID 0000.0001) EXF_SET_FLD:   first, changed, fac:   T   F    0.49316939890710387
(PID.TID 0000.0001) EXF_SET_FLD: field "lwdown", it=         5, loading rec=     1
(PID.TID 0000.0001) EXF_SET_FLD:   from file: "flo.labsea1979"
(PID.TID 0000.0001)  MDS_READ_FIELD: opening global file: flo.labsea1979
(PID.TID 0000.0001) EXF_SET_FLD: field "lwdown", it=         5, loading rec=     2
(PID.TID 0000.0001) EXF_SET_FLD:   from file: "flo.labsea1979"
(PID.TID 0000.0001)  MDS_READ_FIELD: opening global file: flo.labsea1979
DEBUG_STATS_RL: Uice pre  iter (SEAICE_LSR  1)  min= -9.02121933428159E-03
DEBUG_STATS_RL: Uice pre  iter (SEAICE_LSR  1)  max=  2.19445684647109E-01
DEBUG_STATS_RL: Uice pre  iter (SEAICE_LSR  1) mean=  6.96639305502532E-02
DEBUG_STATS_RL: Uice pre  iter (SEAICE_LSR  1) S.D.=  7.25590715280224E-02
DEBUG_STATS_RL: Vice pre  iter (SEAICE_LSR  1)  min= -1.73112057819563E-01
DEBUG_STATS_RL: Vice pre  iter (SEAICE_LSR  1)  max=  1.05174802576008E-01
DEBUG_STATS_RL: Vice pre  iter (SEAICE_LSR  1) mean= -3.44957645455127E-02
DEBUG_STATS_RL: Vice pre  iter (SEAICE_LSR  1) S.D.=  5.17027322842165E-02
DEBUG_STATS_RL: Uice pre  iter (SEAICE_LSR  2)  min= -9.93295031152210E-03
DEBUG_STATS_RL: Uice pre  iter (SEAICE_LSR  2)  max=  2.37649472779152E-01
DEBUG_STATS_RL: Uice pre  iter (SEAICE_LSR  2) mean=  7.08960993522900E-02
DEBUG_STATS_RL: Uice pre  iter (SEAICE_LSR  2) S.D.=  7.51814019583860E-02
DEBUG_STATS_RL: Vice pre  iter (SEAICE_LSR  2)  min= -1.73458139241626E-01
DEBUG_STATS_RL: Vice pre  iter (SEAICE_LSR  2)  max=  1.02503634704982E-01
DEBUG_STATS_RL: Vice pre  iter (SEAICE_LSR  2) mean= -3.89801386768760E-02
DEBUG_STATS_RL: Vice pre  iter (SEAICE_LSR  2) S.D.=  5.44920749395038E-02
DEBUG_STATS_RL:                EtaN (DYNAMICS)  min= -1.29709672821213E-01
DEBUG_STATS_RL:                EtaN (DYNAMICS)  max=  3.25626876398477E-01
DEBUG_STATS_RL:                EtaN (DYNAMICS) mean= -3.00841690122536E-03
DEBUG_STATS_RL:                EtaN (DYNAMICS) S.D.=  7.54180814594036E-02
DEBUG_STATS_RL:                Uvel (DYNAMICS)  min= -3.64296443204224E-02
DEBUG_STATS_RL:                Uvel (DYNAMICS)  max=  8.91662112566489E-02
DEBUG_STATS_RL:                Uvel (DYNAMICS) mean=  5.18186102505262E-03
DEBUG_STATS_RL:                Uvel (DYNAMICS) S.D.=  1.36791834404111E-02
DEBUG_STATS_RL:                Vvel (DYNAMICS)  min= -8.48427067731397E-02
DEBUG_STATS_RL:                Vvel (DYNAMICS)  max=  7.15709637633448E-02
DEBUG_STATS_RL:                Vvel (DYNAMICS) mean= -6.25663991250223E-04
DEBUG_STATS_RL:                Vvel (DYNAMICS) S.D.=  1.65568599029307E-02
DEBUG_STATS_RL:                Wvel (DYNAMICS)  min= -2.02998023749463E-04
DEBUG_STATS_RL:                Wvel (DYNAMICS)  max=  3.07634744219620E-04
DEBUG_STATS_RL:                Wvel (DYNAMICS) mean= -2.14485636605179E-07
DEBUG_STATS_RL:                Wvel (DYNAMICS) S.D.=  2.56514188295233E-05
DEBUG_STATS_RL:               Theta (DYNAMICS)  min= -1.95891909892377E+00
DEBUG_STATS_RL:               Theta (DYNAMICS)  max=  1.32575107273067E+01
DEBUG_STATS_RL:               Theta (DYNAMICS) mean=  2.41560973729717E+00
DEBUG_STATS_RL:               Theta (DYNAMICS) S.D.=  2.57506629522921E+00
DEBUG_STATS_RL:                Salt (DYNAMICS)  min=  2.76241835718781E+01
DEBUG_STATS_RL:                Salt (DYNAMICS)  max=  3.54512322319690E+01
DEBUG_STATS_RL:                Salt (DYNAMICS) mean=  3.39367610972827E+01
DEBUG_STATS_RL:                Salt (DYNAMICS) S.D.=  1.15400523729775E+00
DEBUG_STATS_RL:                  Gu (DYNAMICS)  min= -3.40661284878781E-02
DEBUG_STATS_RL:                  Gu (DYNAMICS)  max=  1.09592409505601E-01
DEBUG_STATS_RL:                  Gu (DYNAMICS) mean=  3.43340148231612E-03
DEBUG_STATS_RL:                  Gu (DYNAMICS) S.D.=  1.52106643070904E-02
DEBUG_STATS_RL:                  Gv (DYNAMICS)  min= -1.19743996000496E-01
DEBUG_STATS_RL:                  Gv (DYNAMICS)  max=  5.31755908727337E-02
DEBUG_STATS_RL:                  Gv (DYNAMICS) mean= -6.43607759844673E-03
DEBUG_STATS_RL:                  Gv (DYNAMICS) S.D.=  1.74595586593132E-02
DEBUG_STATS_RL:               GuNm1 (DYNAMICS)  min= -2.94347299884301E-07
DEBUG_STATS_RL:               GuNm1 (DYNAMICS)  max=  1.78770581560375E-07
DEBUG_STATS_RL:               GuNm1 (DYNAMICS) mean= -3.06311171945198E-09
DEBUG_STATS_RL:               GuNm1 (DYNAMICS) S.D.=  4.19614199163276E-08
DEBUG_STATS_RL:               GvNm1 (DYNAMICS)  min= -1.82273635415880E-07
DEBUG_STATS_RL:               GvNm1 (DYNAMICS)  max=  1.24273330978528E-07
DEBUG_STATS_RL:               GvNm1 (DYNAMICS) mean= -1.05360009952046E-09
DEBUG_STATS_RL:               GvNm1 (DYNAMICS) S.D.=  3.58773704868012E-08
DEBUG_STATS_RL:               GtNm1 (DYNAMICS)  min=  0.00000000000000E+00
DEBUG_STATS_RL:               GtNm1 (DYNAMICS)  max=  0.00000000000000E+00
DEBUG_STATS_RL:               GtNm1 (DYNAMICS) mean=  0.00000000000000E+00
DEBUG_STATS_RL:               GtNm1 (DYNAMICS) S.D.=  0.00000000000000E+00
DEBUG_STATS_RL:               GsNm1 (DYNAMICS)  min=  0.00000000000000E+00
DEBUG_STATS_RL:               GsNm1 (DYNAMICS)  max=  0.00000000000000E+00
DEBUG_STATS_RL:               GsNm1 (DYNAMICS) mean=  0.00000000000000E+00
DEBUG_STATS_RL:               GsNm1 (DYNAMICS) S.D.=  0.00000000000000E+00
(PID.TID 0000.0001) SOLVE_FOR_PRESSURE: putPmEinXvector =    F
DEBUG_STATS_RL:    cg2d_b (SOLVE_FOR_PRESSURE)  min= -7.45833771571459E+03
DEBUG_STATS_RL:    cg2d_b (SOLVE_FOR_PRESSURE)  max=  2.17494903027769E+03
DEBUG_STATS_RL:    cg2d_b (SOLVE_FOR_PRESSURE) mean=  4.18935997004155E-13
DEBUG_STATS_RL:    cg2d_b (SOLVE_FOR_PRESSURE) S.D.=  9.06377010650268E+02
 cg2d: Sum(rhs),rhsMax =   8.29197821516914E-15  1.20041496847834E+00
DEBUG_STATS_RL:    cg2d_x (SOLVE_FOR_PRESSURE)  min= -1.23196163368130E+00
DEBUG_STATS_RL:    cg2d_x (SOLVE_FOR_PRESSURE)  max=  3.23727429689848E+00
DEBUG_STATS_RL:    cg2d_x (SOLVE_FOR_PRESSURE) mean= -3.45194761148230E-02
DEBUG_STATS_RL:    cg2d_x (SOLVE_FOR_PRESSURE) S.D.=  7.10912240392561E-01
DEBUG_STATS_RL:          Uvel (THERMODYNAMICS)  min= -3.59096386964102E-02
DEBUG_STATS_RL:          Uvel (THERMODYNAMICS)  max=  1.01288605318195E-01
DEBUG_STATS_RL:          Uvel (THERMODYNAMICS) mean=  5.06442107691443E-03
DEBUG_STATS_RL:          Uvel (THERMODYNAMICS) S.D.=  1.40087544095653E-02
DEBUG_STATS_RL:          Vvel (THERMODYNAMICS)  min= -1.10756263988798E-01
DEBUG_STATS_RL:          Vvel (THERMODYNAMICS)  max=  7.07208418107748E-02
DEBUG_STATS_RL:          Vvel (THERMODYNAMICS) mean= -2.17557054828444E-03
DEBUG_STATS_RL:          Vvel (THERMODYNAMICS) S.D.=  1.80912833066385E-02
DEBUG_STATS_RL:          Wvel (THERMODYNAMICS)  min= -2.43811460414301E-04
DEBUG_STATS_RL:          Wvel (THERMODYNAMICS)  max=  3.28816353261790E-04
DEBUG_STATS_RL:          Wvel (THERMODYNAMICS) mean= -1.37923543342930E-07
DEBUG_STATS_RL:          Wvel (THERMODYNAMICS) S.D.=  2.75149300864468E-05
DEBUG_STATS_RL:         Theta (THERMODYNAMICS)  min= -1.96015217723737E+00
DEBUG_STATS_RL:         Theta (THERMODYNAMICS)  max=  1.32512671183370E+01
DEBUG_STATS_RL:         Theta (THERMODYNAMICS) mean=  2.41531606071968E+00
DEBUG_STATS_RL:         Theta (THERMODYNAMICS) S.D.=  2.57483151675911E+00
DEBUG_STATS_RL:          Salt (THERMODYNAMICS)  min=  2.76290307531745E+01
DEBUG_STATS_RL:          Salt (THERMODYNAMICS)  max=  3.54512307060718E+01
DEBUG_STATS_RL:          Salt (THERMODYNAMICS) mean=  3.39367446276238E+01
DEBUG_STATS_RL:          Salt (THERMODYNAMICS) S.D.=  1.15382313156805E+00
DEBUG_STATS_RL:         GtNm1 (THERMODYNAMICS)  min=  0.00000000000000E+00
DEBUG_STATS_RL:         GtNm1 (THERMODYNAMICS)  max=  0.00000000000000E+00
DEBUG_STATS_RL:         GtNm1 (THERMODYNAMICS) mean=  0.00000000000000E+00
DEBUG_STATS_RL:         GtNm1 (THERMODYNAMICS) S.D.=  0.00000000000000E+00
DEBUG_STATS_RL:         GsNm1 (THERMODYNAMICS)  min=  0.00000000000000E+00
DEBUG_STATS_RL:         GsNm1 (THERMODYNAMICS)  max=  0.00000000000000E+00
DEBUG_STATS_RL:         GsNm1 (THERMODYNAMICS) mean=  0.00000000000000E+00
DEBUG_STATS_RL:         GsNm1 (THERMODYNAMICS) S.D.=  0.00000000000000E+00
(PID.TID 0000.0001)  MDS_WRITE_FIELD: it,rec,kS,kL,kH=       1     2   1   1   1 file=m_sst_step.0000000001
(PID.TID 0000.0001)  MDS_READ_FIELD: opening global file: xx_atemp.effective.0000000001.data
(PID.TID 0000.0001) EXF_SET_FLD: processing field "climsss",  file: SSS_monthly.labsea1979
(PID.TID 0000.0001) EXF_SET_FLD:   myIter, count0, count1:         6      1      2
(PID.TID 0000.0001) EXF_SET_FLD:   first, changed, fac:   F   F    0.49180327868852458
(PID.TID 0000.0001) EXF_SET_FLD: processing field "uwind",  file: u10m.labsea1979
(PID.TID 0000.0001) EXF_SET_FLD:   myIter, count0, count1:         6      1      2
(PID.TID 0000.0001) EXF_SET_FLD:   first, changed, fac:   F   F    0.49180327868852458
(PID.TID 0000.0001) EXF_SET_FLD: processing field "vwind",  file: v10m.labsea1979
(PID.TID 0000.0001) EXF_SET_FLD:   myIter, count0, count1:         6      1      2
(PID.TID 0000.0001) EXF_SET_FLD:   first, changed, fac:   F   F    0.49180327868852458
(PID.TID 0000.0001) EXF_SET_FLD: processing field "atemp",  file: tair.labsea1979
(PID.TID 0000.0001) EXF_SET_FLD:   myIter, count0, count1:         6      1      2
(PID.TID 0000.0001) EXF_SET_FLD:   first, changed, fac:   F   F    0.49180327868852458
(PID.TID 0000.0001) EXF_SET_FLD: processing field "aqh",  file: qa.labsea1979
(PID.TID 0000.0001) EXF_SET_FLD:   myIter, count0, count1:         6      1      2
(PID.TID 0000.0001) EXF_SET_FLD:   first, changed, fac:   F   F    0.49180327868852458
(PID.TID 0000.0001) EXF_SET_FLD: processing field "precip",  file: prate.labsea1979
(PID.TID 0000.0001) EXF_SET_FLD:   myIter, count0, count1:         6      1      2
(PID.TID 0000.0001) EXF_SET_FLD:   first, changed, fac:   F   F    0.49180327868852458
(PID.TID 0000.0001) EXF_SET_FLD: processing field "swdown",  file: fsh.labsea1979
(PID.TID 0000.0001) EXF_SET_FLD:   myIter, count0, count1:         6      1      2
(PID.TID 0000.0001) EXF_SET_FLD:   first, changed, fac:   F   F    0.49180327868852458
(PID.TID 0000.0001) EXF_SET_FLD: processing field "lwdown",  file: flo.labsea1979
(PID.TID 0000.0001) EXF_SET_FLD:   myIter, count0, count1:         6      1      2
(PID.TID 0000.0001) EXF_SET_FLD:   first, changed, fac:   F   F    0.49180327868852458
DEBUG_STATS_RL: Uice pre  iter (SEAICE_LSR  1)  min= -1.19106759196614E-02
DEBUG_STATS_RL: Uice pre  iter (SEAICE_LSR  1)  max=  2.40859973799500E-01
DEBUG_STATS_RL: Uice pre  iter (SEAICE_LSR  1) mean=  7.02597534860948E-02
DEBUG_STATS_RL: Uice pre  iter (SEAICE_LSR  1) S.D.=  7.57773428259753E-02
DEBUG_STATS_RL: Vice pre  iter (SEAICE_LSR  1)  min= -1.74132342678207E-01
DEBUG_STATS_RL: Vice pre  iter (SEAICE_LSR  1)  max=  9.66358613081399E-02
DEBUG_STATS_RL: Vice pre  iter (SEAICE_LSR  1) mean= -4.28491368242810E-02
DEBUG_STATS_RL: Vice pre  iter (SEAICE_LSR  1) S.D.=  5.63763392291550E-02
DEBUG_STATS_RL: Uice pre  iter (SEAICE_LSR  2)  min= -1.30564509125757E-02
DEBUG_STATS_RL: Uice pre  iter (SEAICE_LSR  2)  max=  2.47901039964918E-01
DEBUG_STATS_RL: Uice pre  iter (SEAICE_LSR  2) mean=  6.80717062410296E-02
DEBUG_STATS_RL: Uice pre  iter (SEAICE_LSR  2) S.D.=  7.48548542542582E-02
DEBUG_STATS_RL: Vice pre  iter (SEAICE_LSR  2)  min= -1.68314830999124E-01
DEBUG_STATS_RL: Vice pre  iter (SEAICE_LSR  2)  max=  8.87290074915900E-02
DEBUG_STATS_RL: Vice pre  iter (SEAICE_LSR  2) mean= -4.61137817409455E-02
DEBUG_STATS_RL: Vice pre  iter (SEAICE_LSR  2) S.D.=  5.74118961796309E-02
DEBUG_STATS_RL:                EtaN (DYNAMICS)  min= -1.25510578434462E-01
DEBUG_STATS_RL:                EtaN (DYNAMICS)  max=  3.29809109672203E-01
DEBUG_STATS_RL:                EtaN (DYNAMICS) mean= -3.51679735470302E-03
DEBUG_STATS_RL:                EtaN (DYNAMICS) S.D.=  7.24267737471536E-02
DEBUG_STATS_RL:                Uvel (DYNAMICS)  min= -3.59096386964102E-02
DEBUG_STATS_RL:                Uvel (DYNAMICS)  max=  1.01288605318195E-01
DEBUG_STATS_RL:                Uvel (DYNAMICS) mean=  5.06442107691443E-03
DEBUG_STATS_RL:                Uvel (DYNAMICS) S.D.=  1.40087544095653E-02
DEBUG_STATS_RL:                Vvel (DYNAMICS)  min= -1.10756263988798E-01
DEBUG_STATS_RL:                Vvel (DYNAMICS)  max=  7.07208418107748E-02
DEBUG_STATS_RL:                Vvel (DYNAMICS) mean= -2.17557054828444E-03
DEBUG_STATS_RL:                Vvel (DYNAMICS) S.D.=  1.80912833066385E-02
DEBUG_STATS_RL:                Wvel (DYNAMICS)  min= -2.43811460414301E-04
DEBUG_STATS_RL:                Wvel (DYNAMICS)  max=  3.28816353261790E-04
DEBUG_STATS_RL:                Wvel (DYNAMICS) mean= -1.37923543342930E-07
DEBUG_STATS_RL:                Wvel (DYNAMICS) S.D.=  2.75149300864468E-05
DEBUG_STATS_RL:               Theta (DYNAMICS)  min= -1.96015217723737E+00
DEBUG_STATS_RL:               Theta (DYNAMICS)  max=  1.32512671183370E+01
DEBUG_STATS_RL:               Theta (DYNAMICS) mean=  2.41531606071968E+00
DEBUG_STATS_RL:               Theta (DYNAMICS) S.D.=  2.57483151675911E+00
DEBUG_STATS_RL:                Salt (DYNAMICS)  min=  2.76290307531745E+01
DEBUG_STATS_RL:                Salt (DYNAMICS)  max=  3.54512307060718E+01
DEBUG_STATS_RL:                Salt (DYNAMICS) mean=  3.39367446276238E+01
DEBUG_STATS_RL:                Salt (DYNAMICS) S.D.=  1.15382313156805E+00
DEBUG_STATS_RL:                  Gu (DYNAMICS)  min= -4.45840116890899E-02
DEBUG_STATS_RL:                  Gu (DYNAMICS)  max=  1.13252404039500E-01
DEBUG_STATS_RL:                  Gu (DYNAMICS) mean=  3.02808241161229E-03
DEBUG_STATS_RL:                  Gu (DYNAMICS) S.D.=  1.59063121238893E-02
DEBUG_STATS_RL:                  Gv (DYNAMICS)  min= -1.34630447324912E-01
DEBUG_STATS_RL:                  Gv (DYNAMICS)  max=  4.81174890382835E-02
DEBUG_STATS_RL:                  Gv (DYNAMICS) mean= -7.41639241987065E-03
DEBUG_STATS_RL:                  Gv (DYNAMICS) S.D.=  1.85638365104700E-02
DEBUG_STATS_RL:               GuNm1 (DYNAMICS)  min= -3.33271036892904E-07
DEBUG_STATS_RL:               GuNm1 (DYNAMICS)  max=  1.87479663955270E-07
DEBUG_STATS_RL:               GuNm1 (DYNAMICS) mean= -3.31200046769952E-09
DEBUG_STATS_RL:               GuNm1 (DYNAMICS) S.D.=  4.08419141881971E-08
DEBUG_STATS_RL:               GvNm1 (DYNAMICS)  min= -2.04912919624491E-07
DEBUG_STATS_RL:               GvNm1 (DYNAMICS)  max=  1.56710147054438E-07
DEBUG_STATS_RL:               GvNm1 (DYNAMICS) mean= -8.96938696731291E-10
DEBUG_STATS_RL:               GvNm1 (DYNAMICS) S.D.=  3.95873164870957E-08
DEBUG_STATS_RL:               GtNm1 (DYNAMICS)  min=  0.00000000000000E+00
DEBUG_STATS_RL:               GtNm1 (DYNAMICS)  max=  0.00000000000000E+00
DEBUG_STATS_RL:               GtNm1 (DYNAMICS) mean=  0.00000000000000E+00
DEBUG_STATS_RL:               GtNm1 (DYNAMICS) S.D.=  0.00000000000000E+00
DEBUG_STATS_RL:               GsNm1 (DYNAMICS)  min=  0.00000000000000E+00
DEBUG_STATS_RL:               GsNm1 (DYNAMICS)  max=  0.00000000000000E+00
DEBUG_STATS_RL:               GsNm1 (DYNAMICS) mean=  0.00000000000000E+00
DEBUG_STATS_RL:               GsNm1 (DYNAMICS) S.D.=  0.00000000000000E+00
DEBUG_STATS_RL:    cg2d_b (SOLVE_FOR_PRESSURE)  min= -7.43169656861245E+03
DEBUG_STATS_RL:    cg2d_b (SOLVE_FOR_PRESSURE)  max=  2.17598296942634E+03
DEBUG_STATS_RL:    cg2d_b (SOLVE_FOR_PRESSURE) mean=  6.96331881044898E-13
DEBUG_STATS_RL:    cg2d_b (SOLVE_FOR_PRESSURE) S.D.=  9.02750100849735E+02
 cg2d: Sum(rhs),rhsMax =   1.41067713066434E-14  1.19612709187932E+00
DEBUG_STATS_RL:    cg2d_x (SOLVE_FOR_PRESSURE)  min= -1.18794061890904E+00
DEBUG_STATS_RL:    cg2d_x (SOLVE_FOR_PRESSURE)  max=  3.24511049575726E+00
DEBUG_STATS_RL:    cg2d_x (SOLVE_FOR_PRESSURE) mean= -3.88654400025836E-02
DEBUG_STATS_RL:    cg2d_x (SOLVE_FOR_PRESSURE) S.D.=  6.81167535252279E-01
DEBUG_STATS_RL:          Uvel (THERMODYNAMICS)  min= -3.57601727936033E-02
DEBUG_STATS_RL:          Uvel (THERMODYNAMICS)  max=  1.04775938290593E-01
DEBUG_STATS_RL:          Uvel (THERMODYNAMICS) mean=  4.39725630125182E-03
DEBUG_STATS_RL:          Uvel (THERMODYNAMICS) S.D.=  1.39028540310335E-02
DEBUG_STATS_RL:          Vvel (THERMODYNAMICS)  min= -1.27584762387762E-01
DEBUG_STATS_RL:          Vvel (THERMODYNAMICS)  max=  6.50083276838834E-02
DEBUG_STATS_RL:          Vvel (THERMODYNAMICS) mean= -3.36887217582008E-03
DEBUG_STATS_RL:          Vvel (THERMODYNAMICS) S.D.=  1.85890275650197E-02
DEBUG_STATS_RL:          Wvel (THERMODYNAMICS)  min= -2.67954696014334E-04
DEBUG_STATS_RL:          Wvel (THERMODYNAMICS)  max=  3.29804232734301E-04
DEBUG_STATS_RL:          Wvel (THERMODYNAMICS) mean= -4.85616750767614E-08
DEBUG_STATS_RL:          Wvel (THERMODYNAMICS) S.D.=  2.84164537902804E-05
DEBUG_STATS_RL:         Theta (THERMODYNAMICS)  min= -1.95963016104374E+00
DEBUG_STATS_RL:         Theta (THERMODYNAMICS)  max=  1.32396343409662E+01
DEBUG_STATS_RL:         Theta (THERMODYNAMICS) mean=  2.41506584132490E+00
DEBUG_STATS_RL:         Theta (THERMODYNAMICS) S.D.=  2.57443936967394E+00
DEBUG_STATS_RL:          Salt (THERMODYNAMICS)  min=  2.76338867569799E+01
DEBUG_STATS_RL:          Salt (THERMODYNAMICS)  max=  3.54511617149686E+01
DEBUG_STATS_RL:          Salt (THERMODYNAMICS) mean=  3.39367496241626E+01
DEBUG_STATS_RL:          Salt (THERMODYNAMICS) S.D.=  1.15359229307638E+00
DEBUG_STATS_RL:         GtNm1 (THERMODYNAMICS)  min=  0.00000000000000E+00
DEBUG_STATS_RL:         GtNm1 (THERMODYNAMICS)  max=  0.00000000000000E+00
DEBUG_STATS_RL:         GtNm1 (THERMODYNAMICS) mean=  0.00000000000000E+00
DEBUG_STATS_RL:         GtNm1 (THERMODYNAMICS) S.D.=  0.00000000000000E+00
DEBUG_STATS_RL:         GsNm1 (THERMODYNAMICS)  min=  0.00000000000000E+00
DEBUG_STATS_RL:         GsNm1 (THERMODYNAMICS)  max=  0.00000000000000E+00
DEBUG_STATS_RL:         GsNm1 (THERMODYNAMICS) mean=  0.00000000000000E+00
DEBUG_STATS_RL:         GsNm1 (THERMODYNAMICS) S.D.=  0.00000000000000E+00
(PID.TID 0000.0001)  MDS_WRITE_FIELD: it,rec,kS,kL,kH=       1     3   1   1   1 file=m_sst_step.0000000001
(PID.TID 0000.0001)  MDS_READ_FIELD: opening global file: xx_atemp.effective.0000000001.data
(PID.TID 0000.0001) EXF_SET_FLD: processing field "climsss",  file: SSS_monthly.labsea1979
(PID.TID 0000.0001) EXF_SET_FLD:   myIter, count0, count1:         7      1      2
(PID.TID 0000.0001) EXF_SET_FLD:   first, changed, fac:   F   F    0.49043715846994540
(PID.TID 0000.0001) EXF_SET_FLD: processing field "uwind",  file: u10m.labsea1979
(PID.TID 0000.0001) EXF_SET_FLD:   myIter, count0, count1:         7      1      2
(PID.TID 0000.0001) EXF_SET_FLD:   first, changed, fac:   F   F    0.49043715846994540
(PID.TID 0000.0001) EXF_SET_FLD: processing field "vwind",  file: v10m.labsea1979
(PID.TID 0000.0001) EXF_SET_FLD:   myIter, count0, count1:         7      1      2
(PID.TID 0000.0001) EXF_SET_FLD:   first, changed, fac:   F   F    0.49043715846994540
(PID.TID 0000.0001) EXF_SET_FLD: processing field "atemp",  file: tair.labsea1979
(PID.TID 0000.0001) EXF_SET_FLD:   myIter, count0, count1:         7      1      2
(PID.TID 0000.0001) EXF_SET_FLD:   first, changed, fac:   F   F    0.49043715846994540
(PID.TID 0000.0001) EXF_SET_FLD: processing field "aqh",  file: qa.labsea1979
(PID.TID 0000.0001) EXF_SET_FLD:   myIter, count0, count1:         7      1      2
(PID.TID 0000.0001) EXF_SET_FLD:   first, changed, fac:   F   F    0.49043715846994540
(PID.TID 0000.0001) EXF_SET_FLD: processing field "precip",  file: prate.labsea1979
(PID.TID 0000.0001) EXF_SET_FLD:   myIter, count0, count1:         7      1      2
(PID.TID 0000.0001) EXF_SET_FLD:   first, changed, fac:   F   F    0.49043715846994540
(PID.TID 0000.0001) EXF_SET_FLD: processing field "swdown",  file: fsh.labsea1979
(PID.TID 0000.0001) EXF_SET_FLD:   myIter, count0, count1:         7      1      2
(PID.TID 0000.0001) EXF_SET_FLD:   first, changed, fac:   F   F    0.49043715846994540
(PID.TID 0000.0001) EXF_SET_FLD: processing field "lwdown",  file: flo.labsea1979
(PID.TID 0000.0001) EXF_SET_FLD:   myIter, count0, count1:         7      1      2
(PID.TID 0000.0001) EXF_SET_FLD:   first, changed, fac:   F   F    0.49043715846994540
DEBUG_STATS_RL: Uice pre  iter (SEAICE_LSR  1)  min= -1.54549194525866E-02
DEBUG_STATS_RL: Uice pre  iter (SEAICE_LSR  1)  max=  2.53524286292195E-01
DEBUG_STATS_RL: Uice pre  iter (SEAICE_LSR  1) mean=  6.68799365320119E-02
DEBUG_STATS_RL: Uice pre  iter (SEAICE_LSR  1) S.D.=  7.54478852962580E-02
DEBUG_STATS_RL: Vice pre  iter (SEAICE_LSR  1)  min= -1.68373183021268E-01
DEBUG_STATS_RL: Vice pre  iter (SEAICE_LSR  1)  max=  8.10859368452303E-02
DEBUG_STATS_RL: Vice pre  iter (SEAICE_LSR  1) mean= -4.94905385200998E-02
DEBUG_STATS_RL: Vice pre  iter (SEAICE_LSR  1) S.D.=  5.89447951203408E-02
DEBUG_STATS_RL: Uice pre  iter (SEAICE_LSR  2)  min= -1.68104910559763E-02
DEBUG_STATS_RL: Uice pre  iter (SEAICE_LSR  2)  max=  2.51381266335640E-01
DEBUG_STATS_RL: Uice pre  iter (SEAICE_LSR  2) mean=  6.26056742417120E-02
DEBUG_STATS_RL: Uice pre  iter (SEAICE_LSR  2) S.D.=  7.23215228186589E-02
DEBUG_STATS_RL: Vice pre  iter (SEAICE_LSR  2)  min= -1.70146515867233E-01
DEBUG_STATS_RL: Vice pre  iter (SEAICE_LSR  2)  max=  7.01571636850258E-02
DEBUG_STATS_RL: Vice pre  iter (SEAICE_LSR  2) mean= -5.12009841743803E-02
DEBUG_STATS_RL: Vice pre  iter (SEAICE_LSR  2) S.D.=  5.84735965012139E-02
DEBUG_STATS_RL:                EtaN (DYNAMICS)  min= -1.21025777222894E-01
DEBUG_STATS_RL:                EtaN (DYNAMICS)  max=  3.30607450971643E-01
DEBUG_STATS_RL:                EtaN (DYNAMICS) mean= -3.95955825447081E-03
DEBUG_STATS_RL:                EtaN (DYNAMICS) S.D.=  6.93964235759688E-02
DEBUG_STATS_RL:                Uvel (DYNAMICS)  min= -3.57601727936033E-02
DEBUG_STATS_RL:                Uvel (DYNAMICS)  max=  1.04775938290593E-01
DEBUG_STATS_RL:                Uvel (DYNAMICS) mean=  4.39725630125182E-03
DEBUG_STATS_RL:                Uvel (DYNAMICS) S.D.=  1.39028540310335E-02
DEBUG_STATS_RL:                Vvel (DYNAMICS)  min= -1.27584762387762E-01
DEBUG_STATS_RL:                Vvel (DYNAMICS)  max=  6.50083276838834E-02
DEBUG_STATS_RL:                Vvel (DYNAMICS) mean= -3.36887217582008E-03
DEBUG_STATS_RL:                Vvel (DYNAMICS) S.D.=  1.85890275650197E-02
DEBUG_STATS_RL:                Wvel (DYNAMICS)  min= -2.67954696014334E-04
DEBUG_STATS_RL:                Wvel (DYNAMICS)  max=  3.29804232734301E-04
DEBUG_STATS_RL:                Wvel (DYNAMICS) mean= -4.85616750767614E-08
DEBUG_STATS_RL:                Wvel (DYNAMICS) S.D.=  2.84164537902804E-05
DEBUG_STATS_RL:               Theta (DYNAMICS)  min= -1.95963016104374E+00
DEBUG_STATS_RL:               Theta (DYNAMICS)  max=  1.32396343409662E+01
DEBUG_STATS_RL:               Theta (DYNAMICS) mean=  2.41506584132490E+00
DEBUG_STATS_RL:               Theta (DYNAMICS) S.D.=  2.57443936967394E+00
DEBUG_STATS_RL:                Salt (DYNAMICS)  min=  2.76338867569799E+01
DEBUG_STATS_RL:                Salt (DYNAMICS)  max=  3.54511617149686E+01
DEBUG_STATS_RL:                Salt (DYNAMICS) mean=  3.39367496241626E+01
DEBUG_STATS_RL:                Salt (DYNAMICS) S.D.=  1.15359229307638E+00
DEBUG_STATS_RL:                  Gu (DYNAMICS)  min= -5.18639383664093E-02
DEBUG_STATS_RL:                  Gu (DYNAMICS)  max=  1.08500044377568E-01
DEBUG_STATS_RL:                  Gu (DYNAMICS) mean=  2.22152146945400E-03
DEBUG_STATS_RL:                  Gu (DYNAMICS) S.D.=  1.62488741545267E-02
DEBUG_STATS_RL:                  Gv (DYNAMICS)  min= -1.40216393355448E-01
DEBUG_STATS_RL:                  Gv (DYNAMICS)  max=  4.07135165171732E-02
DEBUG_STATS_RL:                  Gv (DYNAMICS) mean= -7.84361289825861E-03
DEBUG_STATS_RL:                  Gv (DYNAMICS) S.D.=  1.86090017356288E-02
DEBUG_STATS_RL:               GuNm1 (DYNAMICS)  min= -3.48473911940034E-07
DEBUG_STATS_RL:               GuNm1 (DYNAMICS)  max=  1.90416017948021E-07
DEBUG_STATS_RL:               GuNm1 (DYNAMICS) mean= -3.12306477014106E-09
DEBUG_STATS_RL:               GuNm1 (DYNAMICS) S.D.=  4.09417632400134E-08
DEBUG_STATS_RL:               GvNm1 (DYNAMICS)  min= -2.15359173477236E-07
DEBUG_STATS_RL:               GvNm1 (DYNAMICS)  max=  1.82438063100004E-07
DEBUG_STATS_RL:               GvNm1 (DYNAMICS) mean= -6.53519601921780E-10
DEBUG_STATS_RL:               GvNm1 (DYNAMICS) S.D.=  4.16452354556348E-08
DEBUG_STATS_RL:               GtNm1 (DYNAMICS)  min=  0.00000000000000E+00
DEBUG_STATS_RL:               GtNm1 (DYNAMICS)  max=  0.00000000000000E+00
DEBUG_STATS_RL:               GtNm1 (DYNAMICS) mean=  0.00000000000000E+00
DEBUG_STATS_RL:               GtNm1 (DYNAMICS) S.D.=  0.00000000000000E+00
DEBUG_STATS_RL:               GsNm1 (DYNAMICS)  min=  0.00000000000000E+00
DEBUG_STATS_RL:               GsNm1 (DYNAMICS)  max=  0.00000000000000E+00
DEBUG_STATS_RL:               GsNm1 (DYNAMICS) mean=  0.00000000000000E+00
DEBUG_STATS_RL:               GsNm1 (DYNAMICS) S.D.=  0.00000000000000E+00
DEBUG_STATS_RL:    cg2d_b (SOLVE_FOR_PRESSURE)  min= -7.37985604508148E+03
DEBUG_STATS_RL:    cg2d_b (SOLVE_FOR_PRESSURE)  max=  2.18366607280435E+03
DEBUG_STATS_RL:    cg2d_b (SOLVE_FOR_PRESSURE) mean=  6.18645875268461E-13
DEBUG_STATS_RL:    cg2d_b (SOLVE_FOR_PRESSURE) S.D.=  8.98963545839594E+02
 cg2d: Sum(rhs),rhsMax =   1.34267597040605E-14  1.18778339080378E+00
DEBUG_STATS_RL:    cg2d_x (SOLVE_FOR_PRESSURE)  min= -1.13929441834640E+00
DEBUG_STATS_RL:    cg2d_x (SOLVE_FOR_PRESSURE)  max=  3.20616731162253E+00
DEBUG_STATS_RL:    cg2d_x (SOLVE_FOR_PRESSURE) mean= -4.15672442271453E-02
DEBUG_STATS_RL:    cg2d_x (SOLVE_FOR_PRESSURE) S.D.=  6.51074617232215E-01
DEBUG_STATS_RL:          Uvel (THERMODYNAMICS)  min= -4.34802359621465E-02
DEBUG_STATS_RL:          Uvel (THERMODYNAMICS)  max=  9.99752242998808E-02
DEBUG_STATS_RL:          Uvel (THERMODYNAMICS) mean=  3.48264152589957E-03
DEBUG_STATS_RL:          Uvel (THERMODYNAMICS) S.D.=  1.35343125506116E-02
DEBUG_STATS_RL:          Vvel (THERMODYNAMICS)  min= -1.33439207289254E-01
DEBUG_STATS_RL:          Vvel (THERMODYNAMICS)  max=  5.60260700766945E-02
DEBUG_STATS_RL:          Vvel (THERMODYNAMICS) mean= -4.02696574872961E-03
DEBUG_STATS_RL:          Vvel (THERMODYNAMICS) S.D.=  1.80273334212797E-02
DEBUG_STATS_RL:          Wvel (THERMODYNAMICS)  min= -2.73348162229354E-04
DEBUG_STATS_RL:          Wvel (THERMODYNAMICS)  max=  3.13596923283671E-04
DEBUG_STATS_RL:          Wvel (THERMODYNAMICS) mean=  4.73709411313520E-08
DEBUG_STATS_RL:          Wvel (THERMODYNAMICS) S.D.=  2.82661454219204E-05
DEBUG_STATS_RL:         Theta (THERMODYNAMICS)  min= -1.95943609422387E+00
DEBUG_STATS_RL:         Theta (THERMODYNAMICS)  max=  1.32225113409295E+01
DEBUG_STATS_RL:         Theta (THERMODYNAMICS) mean=  2.41480286619418E+00
DEBUG_STATS_RL:         Theta (THERMODYNAMICS) S.D.=  2.57398860030337E+00
DEBUG_STATS_RL:          Salt (THERMODYNAMICS)  min=  2.76387468555707E+01
DEBUG_STATS_RL:          Salt (THERMODYNAMICS)  max=  3.54510358217953E+01
DEBUG_STATS_RL:          Salt (THERMODYNAMICS) mean=  3.39367601804946E+01
DEBUG_STATS_RL:          Salt (THERMODYNAMICS) S.D.=  1.15334890349729E+00
DEBUG_STATS_RL:         GtNm1 (THERMODYNAMICS)  min=  0.00000000000000E+00
DEBUG_STATS_RL:         GtNm1 (THERMODYNAMICS)  max=  0.00000000000000E+00
DEBUG_STATS_RL:         GtNm1 (THERMODYNAMICS) mean=  0.00000000000000E+00
DEBUG_STATS_RL:         GtNm1 (THERMODYNAMICS) S.D.=  0.00000000000000E+00
DEBUG_STATS_RL:         GsNm1 (THERMODYNAMICS)  min=  0.00000000000000E+00
DEBUG_STATS_RL:         GsNm1 (THERMODYNAMICS)  max=  0.00000000000000E+00
DEBUG_STATS_RL:         GsNm1 (THERMODYNAMICS) mean=  0.00000000000000E+00
DEBUG_STATS_RL:         GsNm1 (THERMODYNAMICS) S.D.=  0.00000000000000E+00
(PID.TID 0000.0001)  MDS_WRITE_FIELD: it,rec,kS,kL,kH=       1     4   1   1   1 file=m_sst_step.0000000001
(PID.TID 0000.0001)  MDS_READ_FIELD: opening global file: xx_atemp.effective.0000000001.data
(PID.TID 0000.0001) EXF_SET_FLD: processing field "climsss",  file: SSS_monthly.labsea1979
(PID.TID 0000.0001) EXF_SET_FLD:   myIter, count0, count1:         8      1      2
(PID.TID 0000.0001) EXF_SET_FLD:   first, changed, fac:   F   F    0.48907103825136611
(PID.TID 0000.0001) EXF_SET_FLD: processing field "uwind",  file: u10m.labsea1979
(PID.TID 0000.0001) EXF_SET_FLD:   myIter, count0, count1:         8      1      2
(PID.TID 0000.0001) EXF_SET_FLD:   first, changed, fac:   F   F    0.48907103825136611
(PID.TID 0000.0001) EXF_SET_FLD: processing field "vwind",  file: v10m.labsea1979
(PID.TID 0000.0001) EXF_SET_FLD:   myIter, count0, count1:         8      1      2
(PID.TID 0000.0001) EXF_SET_FLD:   first, changed, fac:   F   F    0.48907103825136611
(PID.TID 0000.0001) EXF_SET_FLD: processing field "atemp",  file: tair.labsea1979
(PID.TID 0000.0001) EXF_SET_FLD:   myIter, count0, count1:         8      1      2
(PID.TID 0000.0001) EXF_SET_FLD:   first, changed, fac:   F   F    0.48907103825136611
(PID.TID 0000.0001) EXF_SET_FLD: processing field "aqh",  file: qa.labsea1979
(PID.TID 0000.0001) EXF_SET_FLD:   myIter, count0, count1:         8      1      2
(PID.TID 0000.0001) EXF_SET_FLD:   first, changed, fac:   F   F    0.48907103825136611
(PID.TID 0000.0001) EXF_SET_FLD: processing field "precip",  file: prate.labsea1979
(PID.TID 0000.0001) EXF_SET_FLD:   myIter, count0, count1:         8      1      2
(PID.TID 0000.0001) EXF_SET_FLD:   first, changed, fac:   F   F    0.48907103825136611
(PID.TID 0000.0001) EXF_SET_FLD: processing field "swdown",  file: fsh.labsea1979
(PID.TID 0000.0001) EXF_SET_FLD:   myIter, count0, count1:         8      1      2
(PID.TID 0000.0001) EXF_SET_FLD:   first, changed, fac:   F   F    0.48907103825136611
(PID.TID 0000.0001) EXF_SET_FLD: processing field "lwdown",  file: flo.labsea1979
(PID.TID 0000.0001) EXF_SET_FLD:   myIter, count0, count1:         8      1      2
(PID.TID 0000.0001) EXF_SET_FLD:   first, changed, fac:   F   F    0.48907103825136611
DEBUG_STATS_RL: Uice pre  iter (SEAICE_LSR  1)  min= -1.95687208100102E-02
DEBUG_STATS_RL: Uice pre  iter (SEAICE_LSR  1)  max=  2.56695252608154E-01
DEBUG_STATS_RL: Uice pre  iter (SEAICE_LSR  1) mean=  6.10102626008752E-02
DEBUG_STATS_RL: Uice pre  iter (SEAICE_LSR  1) S.D.=  7.26515133443026E-02
DEBUG_STATS_RL: Vice pre  iter (SEAICE_LSR  1)  min= -1.74351841639993E-01
DEBUG_STATS_RL: Vice pre  iter (SEAICE_LSR  1)  max=  6.17815719868620E-02
DEBUG_STATS_RL: Vice pre  iter (SEAICE_LSR  1) mean= -5.34332922103127E-02
DEBUG_STATS_RL: Vice pre  iter (SEAICE_LSR  1) S.D.=  5.91879685811095E-02
DEBUG_STATS_RL: Uice pre  iter (SEAICE_LSR  2)  min= -2.10631196463131E-02
DEBUG_STATS_RL: Uice pre  iter (SEAICE_LSR  2)  max=  2.47741110498678E-01
DEBUG_STATS_RL: Uice pre  iter (SEAICE_LSR  2) mean=  5.58563099525574E-02
DEBUG_STATS_RL: Uice pre  iter (SEAICE_LSR  2) S.D.=  6.83562873807025E-02
DEBUG_STATS_RL: Vice pre  iter (SEAICE_LSR  2)  min= -1.71270231909308E-01
DEBUG_STATS_RL: Vice pre  iter (SEAICE_LSR  2)  max=  5.00408736690829E-02
DEBUG_STATS_RL: Vice pre  iter (SEAICE_LSR  2) mean= -5.35471708937630E-02
DEBUG_STATS_RL: Vice pre  iter (SEAICE_LSR  2) S.D.=  5.75117440524867E-02
DEBUG_STATS_RL:                EtaN (DYNAMICS)  min= -1.16069768363258E-01
DEBUG_STATS_RL:                EtaN (DYNAMICS)  max=  3.26639972250553E-01
DEBUG_STATS_RL:                EtaN (DYNAMICS) mean= -4.23481440025525E-03
DEBUG_STATS_RL:                EtaN (DYNAMICS) S.D.=  6.63305979494085E-02
DEBUG_STATS_RL:                Uvel (DYNAMICS)  min= -4.34802359621465E-02
DEBUG_STATS_RL:                Uvel (DYNAMICS)  max=  9.99752242998808E-02
DEBUG_STATS_RL:                Uvel (DYNAMICS) mean=  3.48264152589957E-03
DEBUG_STATS_RL:                Uvel (DYNAMICS) S.D.=  1.35343125506116E-02
DEBUG_STATS_RL:                Vvel (DYNAMICS)  min= -1.33439207289254E-01
DEBUG_STATS_RL:                Vvel (DYNAMICS)  max=  5.60260700766945E-02
DEBUG_STATS_RL:                Vvel (DYNAMICS) mean= -4.02696574872961E-03
DEBUG_STATS_RL:                Vvel (DYNAMICS) S.D.=  1.80273334212797E-02
DEBUG_STATS_RL:                Wvel (DYNAMICS)  min= -2.73348162229354E-04
DEBUG_STATS_RL:                Wvel (DYNAMICS)  max=  3.13596923283671E-04
DEBUG_STATS_RL:                Wvel (DYNAMICS) mean=  4.73709411313520E-08
DEBUG_STATS_RL:                Wvel (DYNAMICS) S.D.=  2.82661454219204E-05
DEBUG_STATS_RL:               Theta (DYNAMICS)  min= -1.95943609422387E+00
DEBUG_STATS_RL:               Theta (DYNAMICS)  max=  1.32225113409295E+01
DEBUG_STATS_RL:               Theta (DYNAMICS) mean=  2.41480286619418E+00
DEBUG_STATS_RL:               Theta (DYNAMICS) S.D.=  2.57398860030337E+00
DEBUG_STATS_RL:                Salt (DYNAMICS)  min=  2.76387468555707E+01
DEBUG_STATS_RL:                Salt (DYNAMICS)  max=  3.54510358217953E+01
DEBUG_STATS_RL:                Salt (DYNAMICS) mean=  3.39367601804946E+01
DEBUG_STATS_RL:                Salt (DYNAMICS) S.D.=  1.15334890349729E+00
DEBUG_STATS_RL:                  Gu (DYNAMICS)  min= -5.98368153074020E-02
DEBUG_STATS_RL:                  Gu (DYNAMICS)  max=  9.68873121299251E-02
DEBUG_STATS_RL:                  Gu (DYNAMICS) mean=  1.30194972947503E-03
DEBUG_STATS_RL:                  Gu (DYNAMICS) S.D.=  1.61566615235326E-02
DEBUG_STATS_RL:                  Gv (DYNAMICS)  min= -1.36271217267994E-01
DEBUG_STATS_RL:                  Gv (DYNAMICS)  max=  3.83573237348583E-02
DEBUG_STATS_RL:                  Gv (DYNAMICS) mean= -7.71950831958569E-03
DEBUG_STATS_RL:                  Gv (DYNAMICS) S.D.=  1.77533563667874E-02
DEBUG_STATS_RL:               GuNm1 (DYNAMICS)  min= -3.40955168137046E-07
DEBUG_STATS_RL:               GuNm1 (DYNAMICS)  max=  1.82641400821284E-07
DEBUG_STATS_RL:               GuNm1 (DYNAMICS) mean= -2.79196714442664E-09
DEBUG_STATS_RL:               GuNm1 (DYNAMICS) S.D.=  4.07453533304239E-08
DEBUG_STATS_RL:               GvNm1 (DYNAMICS)  min= -2.14559263714299E-07
DEBUG_STATS_RL:               GvNm1 (DYNAMICS)  max=  1.94148824775153E-07
DEBUG_STATS_RL:               GvNm1 (DYNAMICS) mean= -4.04169206802268E-10
DEBUG_STATS_RL:               GvNm1 (DYNAMICS) S.D.=  4.19222729579498E-08
DEBUG_STATS_RL:               GtNm1 (DYNAMICS)  min=  0.00000000000000E+00
DEBUG_STATS_RL:               GtNm1 (DYNAMICS)  max=  0.00000000000000E+00
DEBUG_STATS_RL:               GtNm1 (DYNAMICS) mean=  0.00000000000000E+00
DEBUG_STATS_RL:               GtNm1 (DYNAMICS) S.D.=  0.00000000000000E+00
DEBUG_STATS_RL:               GsNm1 (DYNAMICS)  min=  0.00000000000000E+00
DEBUG_STATS_RL:               GsNm1 (DYNAMICS)  max=  0.00000000000000E+00
DEBUG_STATS_RL:               GsNm1 (DYNAMICS) mean=  0.00000000000000E+00
DEBUG_STATS_RL:               GsNm1 (DYNAMICS) S.D.=  0.00000000000000E+00
DEBUG_STATS_RL:    cg2d_b (SOLVE_FOR_PRESSURE)  min= -7.29975929937793E+03
DEBUG_STATS_RL:    cg2d_b (SOLVE_FOR_PRESSURE)  max=  2.19478299507054E+03
DEBUG_STATS_RL:    cg2d_b (SOLVE_FOR_PRESSURE) mean= -3.96767063648440E-13
DEBUG_STATS_RL:    cg2d_b (SOLVE_FOR_PRESSURE) S.D.=  8.94146290227710E+02
 cg2d: Sum(rhs),rhsMax =  -6.92501611609941E-15  1.17489186776824E+00
DEBUG_STATS_RL:    cg2d_x (SOLVE_FOR_PRESSURE)  min= -1.08771127617308E+00
DEBUG_STATS_RL:    cg2d_x (SOLVE_FOR_PRESSURE)  max=  3.12128519797376E+00
DEBUG_STATS_RL:    cg2d_x (SOLVE_FOR_PRESSURE) mean= -4.19588396852395E-02
DEBUG_STATS_RL:    cg2d_x (SOLVE_FOR_PRESSURE) S.D.=  6.20262122262901E-01
DEBUG_STATS_RL:          Uvel (THERMODYNAMICS)  min= -5.12375198242059E-02
DEBUG_STATS_RL:          Uvel (THERMODYNAMICS)  max=  8.84896388076339E-02
DEBUG_STATS_RL:          Uvel (THERMODYNAMICS) mean=  2.55769138538291E-03
DEBUG_STATS_RL:          Uvel (THERMODYNAMICS) S.D.=  1.29064693910456E-02
DEBUG_STATS_RL:          Vvel (THERMODYNAMICS)  min= -1.29344604199479E-01
DEBUG_STATS_RL:          Vvel (THERMODYNAMICS)  max=  4.58633296186249E-02
DEBUG_STATS_RL:          Vvel (THERMODYNAMICS) mean= -4.14107843006319E-03
DEBUG_STATS_RL:          Vvel (THERMODYNAMICS) S.D.=  1.66082836245794E-02
DEBUG_STATS_RL:          Wvel (THERMODYNAMICS)  min= -2.60848991809587E-04
DEBUG_STATS_RL:          Wvel (THERMODYNAMICS)  max=  2.85731299794369E-04
DEBUG_STATS_RL:          Wvel (THERMODYNAMICS) mean=  1.36793666178293E-07
DEBUG_STATS_RL:          Wvel (THERMODYNAMICS) S.D.=  2.70580054557619E-05
DEBUG_STATS_RL:         Theta (THERMODYNAMICS)  min= -1.95932886747261E+00
DEBUG_STATS_RL:         Theta (THERMODYNAMICS)  max=  1.32010303660582E+01
DEBUG_STATS_RL:         Theta (THERMODYNAMICS) mean=  2.41452315045422E+00
DEBUG_STATS_RL:         Theta (THERMODYNAMICS) S.D.=  2.57350774067654E+00
DEBUG_STATS_RL:          Salt (THERMODYNAMICS)  min=  2.76435505129419E+01
DEBUG_STATS_RL:          Salt (THERMODYNAMICS)  max=  3.54508660670958E+01
DEBUG_STATS_RL:          Salt (THERMODYNAMICS) mean=  3.39367749828872E+01
DEBUG_STATS_RL:          Salt (THERMODYNAMICS) S.D.=  1.15309738582237E+00
DEBUG_STATS_RL:         GtNm1 (THERMODYNAMICS)  min=  0.00000000000000E+00
DEBUG_STATS_RL:         GtNm1 (THERMODYNAMICS)  max=  0.00000000000000E+00
DEBUG_STATS_RL:         GtNm1 (THERMODYNAMICS) mean=  0.00000000000000E+00
DEBUG_STATS_RL:         GtNm1 (THERMODYNAMICS) S.D.=  0.00000000000000E+00
DEBUG_STATS_RL:         GsNm1 (THERMODYNAMICS)  min=  0.00000000000000E+00
DEBUG_STATS_RL:         GsNm1 (THERMODYNAMICS)  max=  0.00000000000000E+00
DEBUG_STATS_RL:         GsNm1 (THERMODYNAMICS) mean=  0.00000000000000E+00
DEBUG_STATS_RL:         GsNm1 (THERMODYNAMICS) S.D.=  0.00000000000000E+00
(PID.TID 0000.0001) Did not write pickup because writePickupAtEnd = FALSE
(PID.TID 0000.0001)  MDS_WRITE_FIELD: it,rec,kS,kL,kH=       1     5   1   1   1 file=m_sst_step.0000000001
(PID.TID 0000.0001) gencost # 03
(PID.TID 0000.0001)  MDS_READ_FIELD: opening global file: sigma_sst.bin
(PID.TID 0000.0001)  MDS_READ_FIELD: opening global file: m_sst_step.0000000001.data
(PID.TID 0000.0001)  MDS_READ_FIELD: opening global file: labsea_SST_fields_t5
(PID.TID 0000.0001)  MDS_WRITE_FIELD: it,rec,kS,kL,kH=       1     1   1   1   1 file=misfit_sst
(PID.TID 0000.0001)  MDS_READ_FIELD: opening global file: sigma_sst.bin
(PID.TID 0000.0001)  MDS_READ_FIELD: opening global file: m_sst_step.0000000001.data
(PID.TID 0000.0001)  MDS_READ_FIELD: opening global file: labsea_SST_fields_t5
(PID.TID 0000.0001)  MDS_WRITE_FIELD: it,rec,kS,kL,kH=       1     2   1   1   1 file=misfit_sst
(PID.TID 0000.0001)  MDS_READ_FIELD: opening global file: sigma_sst.bin
(PID.TID 0000.0001)  MDS_READ_FIELD: opening global file: m_sst_step.0000000001.data
(PID.TID 0000.0001)  MDS_READ_FIELD: opening global file: labsea_SST_fields_t5
(PID.TID 0000.0001)  MDS_WRITE_FIELD: it,rec,kS,kL,kH=       1     3   1   1   1 file=misfit_sst
(PID.TID 0000.0001)  MDS_READ_FIELD: opening global file: sigma_sst.bin
(PID.TID 0000.0001)  MDS_READ_FIELD: opening global file: m_sst_step.0000000001.data
(PID.TID 0000.0001)  MDS_READ_FIELD: opening global file: labsea_SST_fields_t5
(PID.TID 0000.0001)  MDS_WRITE_FIELD: it,rec,kS,kL,kH=       1     4   1   1   1 file=misfit_sst
(PID.TID 0000.0001)  MDS_READ_FIELD: opening global file: sigma_sst.bin
(PID.TID 0000.0001)  MDS_READ_FIELD: opening global file: m_sst_step.0000000001.data
(PID.TID 0000.0001)  MDS_READ_FIELD: opening global file: labsea_SST_fields_t5
(PID.TID 0000.0001)  MDS_WRITE_FIELD: it,rec,kS,kL,kH=       1     5   1   1   1 file=misfit_sst
(PID.TID 0000.0001)  MDS_READ_FIELD: opening global file: xx_atemp.0000000001.data
(PID.TID 0000.0001)  MDS_READ_FIELD: opening global file: xx_atemp.0000000001.data
(PID.TID 0000.0001)  MDS_READ_FIELD: opening global file: xx_atemp.0000000001.data
(PID.TID 0000.0001)  MDS_READ_FIELD: opening global file: xx_atemp.0000000001.data
(PID.TID 0000.0001)  MDS_READ_FIELD: opening global file: xx_atemp.0000000001.data
(PID.TID 0000.0001)  MDS_READ_FIELD: opening global file: xx_atemp.0000000001.data
(PID.TID 0000.0001)  MDS_READ_FIELD: opening global file: xx_atemp.0000000001.data
(PID.TID 0000.0001)  MDS_READ_FIELD: opening global file: xx_atemp.0000000001.data
(PID.TID 0000.0001)  MDS_READ_FIELD: opening global file: xx_atemp.0000000001.data
(PID.TID 0000.0001)  MDS_READ_FIELD: opening global file: xx_atemp.0000000001.data
(PID.TID 0000.0001)  MDS_READ_FIELD: opening global file: xx_atemp.0000000001.data
 --> f_ice     = 0.000000000000000D+00
 --> f_smrarea = 0.000000000000000D+00
 --> f_smrarea = 0.000000000000000D+00
 --> f_smrarea = 0.000000000000000D+00
(PID.TID 0000.0001)  --> f_gencost = 0.527453128215446D+04 3
(PID.TID 0000.0001)  --> f_gentim2d = 0.243375020010000D+03 1
(PID.TID 0000.0001)  --> fc               = 0.527453128215446D+04
(PID.TID 0000.0001)  cost_Final: final cost function =  0.527453128215446D+04
(PID.TID 0000.0001) 
(PID.TID 0000.0001)              cost function evaluation finished.
(PID.TID 0000.0001) 
(PID.TID 0000.0001)   early fc =  0.000000000000000D+00
(PID.TID 0000.0001)   local fc =  0.527453128215446D+04
(PID.TID 0000.0001)  global fc =  0.527453128215446D+04
(PID.TID 0000.0001) grdchk perturb(+)fc: fcpertplus  =  5.27453128215446E+03
(PID.TID 0000.0001)  MDS_READ_FIELD: opening global file: xx_atemp.0000000001.data
(PID.TID 0000.0001)  MDS_WRITE_FIELD: it,rec,kS,kL,kH=       1     1   1   1   1 file=xx_atemp.0000000001
(PID.TID 0000.0001)  MDS_READ_FIELD: opening global file: xx_atemp.0000000001.data
(PID.TID 0000.0001)  MDS_WRITE_FIELD: it,rec,kS,kL,kH=       1     1   1   1   1 file=xx_atemp.0000000001
(PID.TID 0000.0001)  MDS_READ_META: opening file: pickup.0000000005.meta
(PID.TID 0000.0001)  nRecords = 141 ; filePrec =  64 ; fileIter =         5
(PID.TID 0000.0001)     nDims =   2 , dims:
(PID.TID 0000.0001)    1:  20   1  20
(PID.TID 0000.0001)    2:  16   1  16
(PID.TID 0000.0001)     nFlds =   9 , nFl3D =   6 , fields:
(PID.TID 0000.0001)  >Uvel    < >Vvel    < >Theta   < >Salt    < >GuNm1   < >GvNm1   < >EtaN    < >dEtaHdt < >EtaH    <
(PID.TID 0000.0001) missingVal=  1.00000000000000E+00 ; nTimRec =   1 , timeList:
(PID.TID 0000.0001)   1.800000000000E+04
(PID.TID 0000.0001) READ_MFLDS_3D_RL: read field: "Uvel    ", #   1 in fldList, rec=   1
(PID.TID 0000.0001)  MDS_READ_FIELD: opening global file: pickup.0000000005.data
(PID.TID 0000.0001) READ_MFLDS_3D_RL: read field: "Vvel    ", #   2 in fldList, rec=   2
(PID.TID 0000.0001)  MDS_READ_FIELD: opening global file: pickup.0000000005.data
(PID.TID 0000.0001) READ_MFLDS_3D_RL: read field: "Theta   ", #   3 in fldList, rec=   3
(PID.TID 0000.0001)  MDS_READ_FIELD: opening global file: pickup.0000000005.data
(PID.TID 0000.0001) READ_MFLDS_3D_RL: read field: "Salt    ", #   4 in fldList, rec=   4
(PID.TID 0000.0001)  MDS_READ_FIELD: opening global file: pickup.0000000005.data
(PID.TID 0000.0001) READ_MFLDS_3D_RL: read field: "GuNm1   ", #   5 in fldList, rec=   5
(PID.TID 0000.0001)  MDS_READ_FIELD: opening global file: pickup.0000000005.data
(PID.TID 0000.0001) READ_MFLDS_3D_RL: read field: "GvNm1   ", #   6 in fldList, rec=   6
(PID.TID 0000.0001)  MDS_READ_FIELD: opening global file: pickup.0000000005.data
(PID.TID 0000.0001) READ_MFLDS_3D_RL: read field: "EtaN    ", #   7 in fldList, rec= 139
(PID.TID 0000.0001)  MDS_READ_FIELD: opening global file: pickup.0000000005.data
(PID.TID 0000.0001) READ_MFLDS_CHECK: - normal end ; reset MFLDS file-name: pickup.0000000005
(PID.TID 0000.0001)  MDS_READ_FIELD: opening global file: pickup_cd.0000000005.data
(PID.TID 0000.0001)  MDS_READ_FIELD: opening global file: pickup_cd.0000000005.data
(PID.TID 0000.0001)  MDS_READ_FIELD: opening global file: pickup_cd.0000000005.data
(PID.TID 0000.0001)  MDS_READ_FIELD: opening global file: pickup_cd.0000000005.data
(PID.TID 0000.0001)  MDS_READ_FIELD: opening global file: pickup_cd.0000000005.data
(PID.TID 0000.0001)  MDS_READ_META: opening file: pickup_seaice.0000000005.meta
(PID.TID 0000.0001)  nRecords =  13 ; filePrec =  64 ; fileIter =         5
(PID.TID 0000.0001)     nDims =   2 , dims:
(PID.TID 0000.0001)    1:  20   1  20
(PID.TID 0000.0001)    2:  16   1  16
(PID.TID 0000.0001)     nFlds =   7 , nFl3D =   1 , fields:
(PID.TID 0000.0001)  >siTICES < >siAREA  < >siHEFF  < >siHSNOW < >siHSALT < >siUICE  < >siVICE  <
(PID.TID 0000.0001) missingVal=  1.00000000000000E+00 ; nTimRec =   1 , timeList:
(PID.TID 0000.0001)   1.800000000000E+04
(PID.TID 0000.0001) READ_MFLDS_3D_RL: read field: "siTICES ", #   1 in fldList, rec=   1
(PID.TID 0000.0001)  MDS_READ_FIELD: opening global file: pickup_seaice.0000000005.data
(PID.TID 0000.0001) READ_MFLDS_3D_RL: read field: "siAREA  ", #   2 in fldList, rec=   8
(PID.TID 0000.0001)  MDS_READ_FIELD: opening global file: pickup_seaice.0000000005.data
(PID.TID 0000.0001) READ_MFLDS_3D_RL: read field: "siHEFF  ", #   3 in fldList, rec=   9
(PID.TID 0000.0001)  MDS_READ_FIELD: opening global file: pickup_seaice.0000000005.data
(PID.TID 0000.0001) READ_MFLDS_3D_RL: read field: "siHSNOW ", #   4 in fldList, rec=  10
(PID.TID 0000.0001)  MDS_READ_FIELD: opening global file: pickup_seaice.0000000005.data
(PID.TID 0000.0001) READ_MFLDS_3D_RL: read field: "siHSALT ", #   5 in fldList, rec=  11
(PID.TID 0000.0001)  MDS_READ_FIELD: opening global file: pickup_seaice.0000000005.data
(PID.TID 0000.0001) READ_MFLDS_3D_RL: read field: "siUICE  ", #   6 in fldList, rec=  12
(PID.TID 0000.0001)  MDS_READ_FIELD: opening global file: pickup_seaice.0000000005.data
(PID.TID 0000.0001) READ_MFLDS_3D_RL: read field: "siVICE  ", #   7 in fldList, rec=  13
(PID.TID 0000.0001)  MDS_READ_FIELD: opening global file: pickup_seaice.0000000005.data
(PID.TID 0000.0001) READ_MFLDS_CHECK: - normal end ; reset MFLDS file-name: pickup_seaice.0000000005
(PID.TID 0000.0001) CTRL_INIT_REC: Getting record indices for xx_atemp
(PID.TID 0000.0001) CTRL_INIT_REC: Record indices for xx_atemp:
(PID.TID 0000.0001) CTRL_INIT_REC: startrec =          6, endrec =         11
(PID.TID 0000.0001)  MDS_READ_FIELD: opening global file: xx_atemp.0000000001.data
(PID.TID 0000.0001)  MDS_WRITE_FIELD: it,rec,kS,kL,kH=       1     1   1   1   1 file=xx_atemp.effective.0000000001
(PID.TID 0000.0001)  MDS_READ_FIELD: opening global file: xx_atemp.0000000001.data
(PID.TID 0000.0001)  MDS_WRITE_FIELD: it,rec,kS,kL,kH=       1     2   1   1   1 file=xx_atemp.effective.0000000001
(PID.TID 0000.0001)  MDS_READ_FIELD: opening global file: xx_atemp.0000000001.data
(PID.TID 0000.0001)  MDS_WRITE_FIELD: it,rec,kS,kL,kH=       1     3   1   1   1 file=xx_atemp.effective.0000000001
(PID.TID 0000.0001)  MDS_READ_FIELD: opening global file: xx_atemp.0000000001.data
(PID.TID 0000.0001)  MDS_WRITE_FIELD: it,rec,kS,kL,kH=       1     4   1   1   1 file=xx_atemp.effective.0000000001
(PID.TID 0000.0001)  MDS_READ_FIELD: opening global file: xx_atemp.0000000001.data
(PID.TID 0000.0001)  MDS_WRITE_FIELD: it,rec,kS,kL,kH=       1     5   1   1   1 file=xx_atemp.effective.0000000001
(PID.TID 0000.0001)  MDS_READ_FIELD: opening global file: xx_atemp.0000000001.data
(PID.TID 0000.0001)  MDS_WRITE_FIELD: it,rec,kS,kL,kH=       1     6   1   1   1 file=xx_atemp.effective.0000000001
(PID.TID 0000.0001)  MDS_READ_FIELD: opening global file: xx_atemp.effective.0000000001.data
(PID.TID 0000.0001)  MDS_READ_FIELD: opening global file: ones_64b.bin
(PID.TID 0000.0001)  MDS_WRITE_FIELD: it,rec,kS,kL,kH=       1     1   1   1   1 file=xx_atemp.effective.0000000001
(PID.TID 0000.0001)  MDS_READ_FIELD: opening global file: xx_atemp.effective.0000000001.data
(PID.TID 0000.0001)  MDS_READ_FIELD: opening global file: ones_64b.bin
(PID.TID 0000.0001)  MDS_WRITE_FIELD: it,rec,kS,kL,kH=       1     2   1   1   1 file=xx_atemp.effective.0000000001
(PID.TID 0000.0001)  MDS_READ_FIELD: opening global file: xx_atemp.effective.0000000001.data
(PID.TID 0000.0001)  MDS_READ_FIELD: opening global file: ones_64b.bin
(PID.TID 0000.0001)  MDS_WRITE_FIELD: it,rec,kS,kL,kH=       1     3   1   1   1 file=xx_atemp.effective.0000000001
(PID.TID 0000.0001)  MDS_READ_FIELD: opening global file: xx_atemp.effective.0000000001.data
(PID.TID 0000.0001)  MDS_READ_FIELD: opening global file: ones_64b.bin
(PID.TID 0000.0001)  MDS_WRITE_FIELD: it,rec,kS,kL,kH=       1     4   1   1   1 file=xx_atemp.effective.0000000001
(PID.TID 0000.0001)  MDS_READ_FIELD: opening global file: xx_atemp.effective.0000000001.data
(PID.TID 0000.0001)  MDS_READ_FIELD: opening global file: ones_64b.bin
(PID.TID 0000.0001)  MDS_WRITE_FIELD: it,rec,kS,kL,kH=       1     5   1   1   1 file=xx_atemp.effective.0000000001
(PID.TID 0000.0001)  MDS_READ_FIELD: opening global file: xx_atemp.effective.0000000001.data
(PID.TID 0000.0001)  MDS_READ_FIELD: opening global file: ones_64b.bin
(PID.TID 0000.0001)  MDS_WRITE_FIELD: it,rec,kS,kL,kH=       1     6   1   1   1 file=xx_atemp.effective.0000000001
(PID.TID 0000.0001) // =======================================================
(PID.TID 0000.0001) // Model current state
(PID.TID 0000.0001) // =======================================================
(PID.TID 0000.0001) 
(PID.TID 0000.0001)  MDS_WRITE_FIELD: it,rec,kS,kL,kH=       1     1   1   1   1 file=m_sst_step.0000000001
(PID.TID 0000.0001)  MDS_READ_FIELD: opening global file: xx_atemp.effective.0000000001.data
(PID.TID 0000.0001)  MDS_READ_FIELD: opening global file: xx_atemp.effective.0000000001.data
(PID.TID 0000.0001) EXF_SET_FLD: processing field "climsss",  file: SSS_monthly.labsea1979
(PID.TID 0000.0001) EXF_SET_FLD:   myIter, count0, count1:         5      1      2
(PID.TID 0000.0001) EXF_SET_FLD:   first, changed, fac:   T   F    0.49316939890710387
(PID.TID 0000.0001) EXF_SET_FLD: field "climsss", it=         5, loading rec=     1
(PID.TID 0000.0001) EXF_SET_FLD:   from file: "SSS_monthly.labsea1979"
(PID.TID 0000.0001)  MDS_READ_FIELD: opening global file: SSS_monthly.labsea1979
(PID.TID 0000.0001) EXF_SET_FLD: field "climsss", it=         5, loading rec=     2
(PID.TID 0000.0001) EXF_SET_FLD:   from file: "SSS_monthly.labsea1979"
(PID.TID 0000.0001)  MDS_READ_FIELD: opening global file: SSS_monthly.labsea1979
(PID.TID 0000.0001) EXF_SET_FLD: processing field "uwind",  file: u10m.labsea1979
(PID.TID 0000.0001) EXF_SET_FLD:   myIter, count0, count1:         5      1      2
(PID.TID 0000.0001) EXF_SET_FLD:   first, changed, fac:   T   F    0.49316939890710387
(PID.TID 0000.0001) EXF_SET_FLD: field "uwind", it=         5, loading rec=     1
(PID.TID 0000.0001) EXF_SET_FLD:   from file: "u10m.labsea1979"
(PID.TID 0000.0001)  MDS_READ_FIELD: opening global file: u10m.labsea1979
(PID.TID 0000.0001) EXF_SET_FLD: field "uwind", it=         5, loading rec=     2
(PID.TID 0000.0001) EXF_SET_FLD:   from file: "u10m.labsea1979"
(PID.TID 0000.0001)  MDS_READ_FIELD: opening global file: u10m.labsea1979
(PID.TID 0000.0001) EXF_SET_FLD: processing field "vwind",  file: v10m.labsea1979
(PID.TID 0000.0001) EXF_SET_FLD:   myIter, count0, count1:         5      1      2
(PID.TID 0000.0001) EXF_SET_FLD:   first, changed, fac:   T   F    0.49316939890710387
(PID.TID 0000.0001) EXF_SET_FLD: field "vwind", it=         5, loading rec=     1
(PID.TID 0000.0001) EXF_SET_FLD:   from file: "v10m.labsea1979"
(PID.TID 0000.0001)  MDS_READ_FIELD: opening global file: v10m.labsea1979
(PID.TID 0000.0001) EXF_SET_FLD: field "vwind", it=         5, loading rec=     2
(PID.TID 0000.0001) EXF_SET_FLD:   from file: "v10m.labsea1979"
(PID.TID 0000.0001)  MDS_READ_FIELD: opening global file: v10m.labsea1979
(PID.TID 0000.0001) EXF_SET_FLD: processing field "atemp",  file: tair.labsea1979
(PID.TID 0000.0001) EXF_SET_FLD:   myIter, count0, count1:         5      1      2
(PID.TID 0000.0001) EXF_SET_FLD:   first, changed, fac:   T   F    0.49316939890710387
(PID.TID 0000.0001) EXF_SET_FLD: field "atemp", it=         5, loading rec=     1
(PID.TID 0000.0001) EXF_SET_FLD:   from file: "tair.labsea1979"
(PID.TID 0000.0001)  MDS_READ_FIELD: opening global file: tair.labsea1979
(PID.TID 0000.0001) EXF_SET_FLD: field "atemp", it=         5, loading rec=     2
(PID.TID 0000.0001) EXF_SET_FLD:   from file: "tair.labsea1979"
(PID.TID 0000.0001)  MDS_READ_FIELD: opening global file: tair.labsea1979
(PID.TID 0000.0001) EXF_SET_FLD: processing field "aqh",  file: qa.labsea1979
(PID.TID 0000.0001) EXF_SET_FLD:   myIter, count0, count1:         5      1      2
(PID.TID 0000.0001) EXF_SET_FLD:   first, changed, fac:   T   F    0.49316939890710387
(PID.TID 0000.0001) EXF_SET_FLD: field "aqh", it=         5, loading rec=     1
(PID.TID 0000.0001) EXF_SET_FLD:   from file: "qa.labsea1979"
(PID.TID 0000.0001)  MDS_READ_FIELD: opening global file: qa.labsea1979
(PID.TID 0000.0001) EXF_SET_FLD: field "aqh", it=         5, loading rec=     2
(PID.TID 0000.0001) EXF_SET_FLD:   from file: "qa.labsea1979"
(PID.TID 0000.0001)  MDS_READ_FIELD: opening global file: qa.labsea1979
(PID.TID 0000.0001) EXF_SET_FLD: processing field "precip",  file: prate.labsea1979
(PID.TID 0000.0001) EXF_SET_FLD:   myIter, count0, count1:         5      1      2
(PID.TID 0000.0001) EXF_SET_FLD:   first, changed, fac:   T   F    0.49316939890710387
(PID.TID 0000.0001) EXF_SET_FLD: field "precip", it=         5, loading rec=     1
(PID.TID 0000.0001) EXF_SET_FLD:   from file: "prate.labsea1979"
(PID.TID 0000.0001)  MDS_READ_FIELD: opening global file: prate.labsea1979
(PID.TID 0000.0001) EXF_SET_FLD: field "precip", it=         5, loading rec=     2
(PID.TID 0000.0001) EXF_SET_FLD:   from file: "prate.labsea1979"
(PID.TID 0000.0001)  MDS_READ_FIELD: opening global file: prate.labsea1979
(PID.TID 0000.0001) EXF_SET_FLD: processing field "swdown",  file: fsh.labsea1979
(PID.TID 0000.0001) EXF_SET_FLD:   myIter, count0, count1:         5      1      2
(PID.TID 0000.0001) EXF_SET_FLD:   first, changed, fac:   T   F    0.49316939890710387
(PID.TID 0000.0001) EXF_SET_FLD: field "swdown", it=         5, loading rec=     1
(PID.TID 0000.0001) EXF_SET_FLD:   from file: "fsh.labsea1979"
(PID.TID 0000.0001)  MDS_READ_FIELD: opening global file: fsh.labsea1979
(PID.TID 0000.0001) EXF_SET_FLD: field "swdown", it=         5, loading rec=     2
(PID.TID 0000.0001) EXF_SET_FLD:   from file: "fsh.labsea1979"
(PID.TID 0000.0001)  MDS_READ_FIELD: opening global file: fsh.labsea1979
(PID.TID 0000.0001) EXF_SET_FLD: processing field "lwdown",  file: flo.labsea1979
(PID.TID 0000.0001) EXF_SET_FLD:   myIter, count0, count1:         5      1      2
(PID.TID 0000.0001) EXF_SET_FLD:   first, changed, fac:   T   F    0.49316939890710387
(PID.TID 0000.0001) EXF_SET_FLD: field "lwdown", it=         5, loading rec=     1
(PID.TID 0000.0001) EXF_SET_FLD:   from file: "flo.labsea1979"
(PID.TID 0000.0001)  MDS_READ_FIELD: opening global file: flo.labsea1979
(PID.TID 0000.0001) EXF_SET_FLD: field "lwdown", it=         5, loading rec=     2
(PID.TID 0000.0001) EXF_SET_FLD:   from file: "flo.labsea1979"
(PID.TID 0000.0001)  MDS_READ_FIELD: opening global file: flo.labsea1979
DEBUG_STATS_RL: Uice pre  iter (SEAICE_LSR  1)  min= -9.02121933428159E-03
DEBUG_STATS_RL: Uice pre  iter (SEAICE_LSR  1)  max=  2.19445684647109E-01
DEBUG_STATS_RL: Uice pre  iter (SEAICE_LSR  1) mean=  6.96639305502532E-02
DEBUG_STATS_RL: Uice pre  iter (SEAICE_LSR  1) S.D.=  7.25590715280224E-02
DEBUG_STATS_RL: Vice pre  iter (SEAICE_LSR  1)  min= -1.73112057819563E-01
DEBUG_STATS_RL: Vice pre  iter (SEAICE_LSR  1)  max=  1.05174802576008E-01
DEBUG_STATS_RL: Vice pre  iter (SEAICE_LSR  1) mean= -3.44957645455127E-02
DEBUG_STATS_RL: Vice pre  iter (SEAICE_LSR  1) S.D.=  5.17027322842165E-02
DEBUG_STATS_RL: Uice pre  iter (SEAICE_LSR  2)  min= -9.93295031152210E-03
DEBUG_STATS_RL: Uice pre  iter (SEAICE_LSR  2)  max=  2.37649472779152E-01
DEBUG_STATS_RL: Uice pre  iter (SEAICE_LSR  2) mean=  7.08960993522900E-02
DEBUG_STATS_RL: Uice pre  iter (SEAICE_LSR  2) S.D.=  7.51814019583860E-02
DEBUG_STATS_RL: Vice pre  iter (SEAICE_LSR  2)  min= -1.73458139241626E-01
DEBUG_STATS_RL: Vice pre  iter (SEAICE_LSR  2)  max=  1.02503634704982E-01
DEBUG_STATS_RL: Vice pre  iter (SEAICE_LSR  2) mean= -3.89801386768760E-02
DEBUG_STATS_RL: Vice pre  iter (SEAICE_LSR  2) S.D.=  5.44920749395038E-02
DEBUG_STATS_RL:                EtaN (DYNAMICS)  min= -1.29709672821213E-01
DEBUG_STATS_RL:                EtaN (DYNAMICS)  max=  3.25626876398477E-01
DEBUG_STATS_RL:                EtaN (DYNAMICS) mean= -3.00841690122536E-03
DEBUG_STATS_RL:                EtaN (DYNAMICS) S.D.=  7.54180814594036E-02
DEBUG_STATS_RL:                Uvel (DYNAMICS)  min= -3.64296443204224E-02
DEBUG_STATS_RL:                Uvel (DYNAMICS)  max=  8.91662112566489E-02
DEBUG_STATS_RL:                Uvel (DYNAMICS) mean=  5.18186102505262E-03
DEBUG_STATS_RL:                Uvel (DYNAMICS) S.D.=  1.36791834404111E-02
DEBUG_STATS_RL:                Vvel (DYNAMICS)  min= -8.48427067731397E-02
DEBUG_STATS_RL:                Vvel (DYNAMICS)  max=  7.15709637633448E-02
DEBUG_STATS_RL:                Vvel (DYNAMICS) mean= -6.25663991250223E-04
DEBUG_STATS_RL:                Vvel (DYNAMICS) S.D.=  1.65568599029307E-02
DEBUG_STATS_RL:                Wvel (DYNAMICS)  min= -2.02998023749463E-04
DEBUG_STATS_RL:                Wvel (DYNAMICS)  max=  3.07634744219620E-04
DEBUG_STATS_RL:                Wvel (DYNAMICS) mean= -2.14485636605179E-07
DEBUG_STATS_RL:                Wvel (DYNAMICS) S.D.=  2.56514188295233E-05
DEBUG_STATS_RL:               Theta (DYNAMICS)  min= -1.95891909892377E+00
DEBUG_STATS_RL:               Theta (DYNAMICS)  max=  1.32575107273067E+01
DEBUG_STATS_RL:               Theta (DYNAMICS) mean=  2.41560973729717E+00
DEBUG_STATS_RL:               Theta (DYNAMICS) S.D.=  2.57506629522921E+00
DEBUG_STATS_RL:                Salt (DYNAMICS)  min=  2.76241835718781E+01
DEBUG_STATS_RL:                Salt (DYNAMICS)  max=  3.54512322319690E+01
DEBUG_STATS_RL:                Salt (DYNAMICS) mean=  3.39367610972827E+01
DEBUG_STATS_RL:                Salt (DYNAMICS) S.D.=  1.15400523729775E+00
DEBUG_STATS_RL:                  Gu (DYNAMICS)  min= -3.40661284878781E-02
DEBUG_STATS_RL:                  Gu (DYNAMICS)  max=  1.09592409505601E-01
DEBUG_STATS_RL:                  Gu (DYNAMICS) mean=  3.43340148231612E-03
DEBUG_STATS_RL:                  Gu (DYNAMICS) S.D.=  1.52106643070904E-02
DEBUG_STATS_RL:                  Gv (DYNAMICS)  min= -1.19743996000496E-01
DEBUG_STATS_RL:                  Gv (DYNAMICS)  max=  5.31755908727337E-02
DEBUG_STATS_RL:                  Gv (DYNAMICS) mean= -6.43607759844673E-03
DEBUG_STATS_RL:                  Gv (DYNAMICS) S.D.=  1.74595586593132E-02
DEBUG_STATS_RL:               GuNm1 (DYNAMICS)  min= -2.94347299884301E-07
DEBUG_STATS_RL:               GuNm1 (DYNAMICS)  max=  1.78770581560375E-07
DEBUG_STATS_RL:               GuNm1 (DYNAMICS) mean= -3.06311171945198E-09
DEBUG_STATS_RL:               GuNm1 (DYNAMICS) S.D.=  4.19614199163276E-08
DEBUG_STATS_RL:               GvNm1 (DYNAMICS)  min= -1.82273635415880E-07
DEBUG_STATS_RL:               GvNm1 (DYNAMICS)  max=  1.24273330978528E-07
DEBUG_STATS_RL:               GvNm1 (DYNAMICS) mean= -1.05360009952046E-09
DEBUG_STATS_RL:               GvNm1 (DYNAMICS) S.D.=  3.58773704868012E-08
DEBUG_STATS_RL:               GtNm1 (DYNAMICS)  min=  0.00000000000000E+00
DEBUG_STATS_RL:               GtNm1 (DYNAMICS)  max=  0.00000000000000E+00
DEBUG_STATS_RL:               GtNm1 (DYNAMICS) mean=  0.00000000000000E+00
DEBUG_STATS_RL:               GtNm1 (DYNAMICS) S.D.=  0.00000000000000E+00
DEBUG_STATS_RL:               GsNm1 (DYNAMICS)  min=  0.00000000000000E+00
DEBUG_STATS_RL:               GsNm1 (DYNAMICS)  max=  0.00000000000000E+00
DEBUG_STATS_RL:               GsNm1 (DYNAMICS) mean=  0.00000000000000E+00
DEBUG_STATS_RL:               GsNm1 (DYNAMICS) S.D.=  0.00000000000000E+00
(PID.TID 0000.0001) SOLVE_FOR_PRESSURE: putPmEinXvector =    F
DEBUG_STATS_RL:    cg2d_b (SOLVE_FOR_PRESSURE)  min= -7.45833771571459E+03
DEBUG_STATS_RL:    cg2d_b (SOLVE_FOR_PRESSURE)  max=  2.17494903027769E+03
DEBUG_STATS_RL:    cg2d_b (SOLVE_FOR_PRESSURE) mean=  4.18935997004155E-13
DEBUG_STATS_RL:    cg2d_b (SOLVE_FOR_PRESSURE) S.D.=  9.06377010650268E+02
 cg2d: Sum(rhs),rhsMax =   8.29197821516914E-15  1.20041496847834E+00
DEBUG_STATS_RL:    cg2d_x (SOLVE_FOR_PRESSURE)  min= -1.23196163368130E+00
DEBUG_STATS_RL:    cg2d_x (SOLVE_FOR_PRESSURE)  max=  3.23727429689848E+00
DEBUG_STATS_RL:    cg2d_x (SOLVE_FOR_PRESSURE) mean= -3.45194761148230E-02
DEBUG_STATS_RL:    cg2d_x (SOLVE_FOR_PRESSURE) S.D.=  7.10912240392561E-01
DEBUG_STATS_RL:          Uvel (THERMODYNAMICS)  min= -3.59096386964102E-02
DEBUG_STATS_RL:          Uvel (THERMODYNAMICS)  max=  1.01288605318195E-01
DEBUG_STATS_RL:          Uvel (THERMODYNAMICS) mean=  5.06442107691443E-03
DEBUG_STATS_RL:          Uvel (THERMODYNAMICS) S.D.=  1.40087544095653E-02
DEBUG_STATS_RL:          Vvel (THERMODYNAMICS)  min= -1.10756263988798E-01
DEBUG_STATS_RL:          Vvel (THERMODYNAMICS)  max=  7.07208418107748E-02
DEBUG_STATS_RL:          Vvel (THERMODYNAMICS) mean= -2.17557054828444E-03
DEBUG_STATS_RL:          Vvel (THERMODYNAMICS) S.D.=  1.80912833066385E-02
DEBUG_STATS_RL:          Wvel (THERMODYNAMICS)  min= -2.43811460414301E-04
DEBUG_STATS_RL:          Wvel (THERMODYNAMICS)  max=  3.28816353261790E-04
DEBUG_STATS_RL:          Wvel (THERMODYNAMICS) mean= -1.37923543342930E-07
DEBUG_STATS_RL:          Wvel (THERMODYNAMICS) S.D.=  2.75149300864468E-05
DEBUG_STATS_RL:         Theta (THERMODYNAMICS)  min= -1.96015217723737E+00
DEBUG_STATS_RL:         Theta (THERMODYNAMICS)  max=  1.32512671183370E+01
DEBUG_STATS_RL:         Theta (THERMODYNAMICS) mean=  2.41531606071968E+00
DEBUG_STATS_RL:         Theta (THERMODYNAMICS) S.D.=  2.57483151675911E+00
DEBUG_STATS_RL:          Salt (THERMODYNAMICS)  min=  2.76290307531745E+01
DEBUG_STATS_RL:          Salt (THERMODYNAMICS)  max=  3.54512307060718E+01
DEBUG_STATS_RL:          Salt (THERMODYNAMICS) mean=  3.39367446276238E+01
DEBUG_STATS_RL:          Salt (THERMODYNAMICS) S.D.=  1.15382313156805E+00
DEBUG_STATS_RL:         GtNm1 (THERMODYNAMICS)  min=  0.00000000000000E+00
DEBUG_STATS_RL:         GtNm1 (THERMODYNAMICS)  max=  0.00000000000000E+00
DEBUG_STATS_RL:         GtNm1 (THERMODYNAMICS) mean=  0.00000000000000E+00
DEBUG_STATS_RL:         GtNm1 (THERMODYNAMICS) S.D.=  0.00000000000000E+00
DEBUG_STATS_RL:         GsNm1 (THERMODYNAMICS)  min=  0.00000000000000E+00
DEBUG_STATS_RL:         GsNm1 (THERMODYNAMICS)  max=  0.00000000000000E+00
DEBUG_STATS_RL:         GsNm1 (THERMODYNAMICS) mean=  0.00000000000000E+00
DEBUG_STATS_RL:         GsNm1 (THERMODYNAMICS) S.D.=  0.00000000000000E+00
(PID.TID 0000.0001)  MDS_WRITE_FIELD: it,rec,kS,kL,kH=       1     2   1   1   1 file=m_sst_step.0000000001
(PID.TID 0000.0001)  MDS_READ_FIELD: opening global file: xx_atemp.effective.0000000001.data
(PID.TID 0000.0001) EXF_SET_FLD: processing field "climsss",  file: SSS_monthly.labsea1979
(PID.TID 0000.0001) EXF_SET_FLD:   myIter, count0, count1:         6      1      2
(PID.TID 0000.0001) EXF_SET_FLD:   first, changed, fac:   F   F    0.49180327868852458
(PID.TID 0000.0001) EXF_SET_FLD: processing field "uwind",  file: u10m.labsea1979
(PID.TID 0000.0001) EXF_SET_FLD:   myIter, count0, count1:         6      1      2
(PID.TID 0000.0001) EXF_SET_FLD:   first, changed, fac:   F   F    0.49180327868852458
(PID.TID 0000.0001) EXF_SET_FLD: processing field "vwind",  file: v10m.labsea1979
(PID.TID 0000.0001) EXF_SET_FLD:   myIter, count0, count1:         6      1      2
(PID.TID 0000.0001) EXF_SET_FLD:   first, changed, fac:   F   F    0.49180327868852458
(PID.TID 0000.0001) EXF_SET_FLD: processing field "atemp",  file: tair.labsea1979
(PID.TID 0000.0001) EXF_SET_FLD:   myIter, count0, count1:         6      1      2
(PID.TID 0000.0001) EXF_SET_FLD:   first, changed, fac:   F   F    0.49180327868852458
(PID.TID 0000.0001) EXF_SET_FLD: processing field "aqh",  file: qa.labsea1979
(PID.TID 0000.0001) EXF_SET_FLD:   myIter, count0, count1:         6      1      2
(PID.TID 0000.0001) EXF_SET_FLD:   first, changed, fac:   F   F    0.49180327868852458
(PID.TID 0000.0001) EXF_SET_FLD: processing field "precip",  file: prate.labsea1979
(PID.TID 0000.0001) EXF_SET_FLD:   myIter, count0, count1:         6      1      2
(PID.TID 0000.0001) EXF_SET_FLD:   first, changed, fac:   F   F    0.49180327868852458
(PID.TID 0000.0001) EXF_SET_FLD: processing field "swdown",  file: fsh.labsea1979
(PID.TID 0000.0001) EXF_SET_FLD:   myIter, count0, count1:         6      1      2
(PID.TID 0000.0001) EXF_SET_FLD:   first, changed, fac:   F   F    0.49180327868852458
(PID.TID 0000.0001) EXF_SET_FLD: processing field "lwdown",  file: flo.labsea1979
(PID.TID 0000.0001) EXF_SET_FLD:   myIter, count0, count1:         6      1      2
(PID.TID 0000.0001) EXF_SET_FLD:   first, changed, fac:   F   F    0.49180327868852458
DEBUG_STATS_RL: Uice pre  iter (SEAICE_LSR  1)  min= -1.19106759196614E-02
DEBUG_STATS_RL: Uice pre  iter (SEAICE_LSR  1)  max=  2.40859973799500E-01
DEBUG_STATS_RL: Uice pre  iter (SEAICE_LSR  1) mean=  7.02597534860948E-02
DEBUG_STATS_RL: Uice pre  iter (SEAICE_LSR  1) S.D.=  7.57773428259753E-02
DEBUG_STATS_RL: Vice pre  iter (SEAICE_LSR  1)  min= -1.74132342678207E-01
DEBUG_STATS_RL: Vice pre  iter (SEAICE_LSR  1)  max=  9.66358613081399E-02
DEBUG_STATS_RL: Vice pre  iter (SEAICE_LSR  1) mean= -4.28491368242810E-02
DEBUG_STATS_RL: Vice pre  iter (SEAICE_LSR  1) S.D.=  5.63763392291550E-02
DEBUG_STATS_RL: Uice pre  iter (SEAICE_LSR  2)  min= -1.30564509125757E-02
DEBUG_STATS_RL: Uice pre  iter (SEAICE_LSR  2)  max=  2.47901039964918E-01
DEBUG_STATS_RL: Uice pre  iter (SEAICE_LSR  2) mean=  6.80717062410296E-02
DEBUG_STATS_RL: Uice pre  iter (SEAICE_LSR  2) S.D.=  7.48548542542582E-02
DEBUG_STATS_RL: Vice pre  iter (SEAICE_LSR  2)  min= -1.68314830999124E-01
DEBUG_STATS_RL: Vice pre  iter (SEAICE_LSR  2)  max=  8.87290074915900E-02
DEBUG_STATS_RL: Vice pre  iter (SEAICE_LSR  2) mean= -4.61137817409455E-02
DEBUG_STATS_RL: Vice pre  iter (SEAICE_LSR  2) S.D.=  5.74118961796309E-02
DEBUG_STATS_RL:                EtaN (DYNAMICS)  min= -1.25510578434462E-01
DEBUG_STATS_RL:                EtaN (DYNAMICS)  max=  3.29809109672203E-01
DEBUG_STATS_RL:                EtaN (DYNAMICS) mean= -3.51679735470302E-03
DEBUG_STATS_RL:                EtaN (DYNAMICS) S.D.=  7.24267737471536E-02
DEBUG_STATS_RL:                Uvel (DYNAMICS)  min= -3.59096386964102E-02
DEBUG_STATS_RL:                Uvel (DYNAMICS)  max=  1.01288605318195E-01
DEBUG_STATS_RL:                Uvel (DYNAMICS) mean=  5.06442107691443E-03
DEBUG_STATS_RL:                Uvel (DYNAMICS) S.D.=  1.40087544095653E-02
DEBUG_STATS_RL:                Vvel (DYNAMICS)  min= -1.10756263988798E-01
DEBUG_STATS_RL:                Vvel (DYNAMICS)  max=  7.07208418107748E-02
DEBUG_STATS_RL:                Vvel (DYNAMICS) mean= -2.17557054828444E-03
DEBUG_STATS_RL:                Vvel (DYNAMICS) S.D.=  1.80912833066385E-02
DEBUG_STATS_RL:                Wvel (DYNAMICS)  min= -2.43811460414301E-04
DEBUG_STATS_RL:                Wvel (DYNAMICS)  max=  3.28816353261790E-04
DEBUG_STATS_RL:                Wvel (DYNAMICS) mean= -1.37923543342930E-07
DEBUG_STATS_RL:                Wvel (DYNAMICS) S.D.=  2.75149300864468E-05
DEBUG_STATS_RL:               Theta (DYNAMICS)  min= -1.96015217723737E+00
DEBUG_STATS_RL:               Theta (DYNAMICS)  max=  1.32512671183370E+01
DEBUG_STATS_RL:               Theta (DYNAMICS) mean=  2.41531606071968E+00
DEBUG_STATS_RL:               Theta (DYNAMICS) S.D.=  2.57483151675911E+00
DEBUG_STATS_RL:                Salt (DYNAMICS)  min=  2.76290307531745E+01
DEBUG_STATS_RL:                Salt (DYNAMICS)  max=  3.54512307060718E+01
DEBUG_STATS_RL:                Salt (DYNAMICS) mean=  3.39367446276238E+01
DEBUG_STATS_RL:                Salt (DYNAMICS) S.D.=  1.15382313156805E+00
DEBUG_STATS_RL:                  Gu (DYNAMICS)  min= -4.45840116890899E-02
DEBUG_STATS_RL:                  Gu (DYNAMICS)  max=  1.13252404039500E-01
DEBUG_STATS_RL:                  Gu (DYNAMICS) mean=  3.02808241161229E-03
DEBUG_STATS_RL:                  Gu (DYNAMICS) S.D.=  1.59063121238893E-02
DEBUG_STATS_RL:                  Gv (DYNAMICS)  min= -1.34630447324912E-01
DEBUG_STATS_RL:                  Gv (DYNAMICS)  max=  4.81174890382835E-02
DEBUG_STATS_RL:                  Gv (DYNAMICS) mean= -7.41639241987065E-03
DEBUG_STATS_RL:                  Gv (DYNAMICS) S.D.=  1.85638365104700E-02
DEBUG_STATS_RL:               GuNm1 (DYNAMICS)  min= -3.33271036892904E-07
DEBUG_STATS_RL:               GuNm1 (DYNAMICS)  max=  1.87479663955270E-07
DEBUG_STATS_RL:               GuNm1 (DYNAMICS) mean= -3.31200046769952E-09
DEBUG_STATS_RL:               GuNm1 (DYNAMICS) S.D.=  4.08419141881971E-08
DEBUG_STATS_RL:               GvNm1 (DYNAMICS)  min= -2.04912919624491E-07
DEBUG_STATS_RL:               GvNm1 (DYNAMICS)  max=  1.56710147054438E-07
DEBUG_STATS_RL:               GvNm1 (DYNAMICS) mean= -8.96938696731291E-10
DEBUG_STATS_RL:               GvNm1 (DYNAMICS) S.D.=  3.95873164870957E-08
DEBUG_STATS_RL:               GtNm1 (DYNAMICS)  min=  0.00000000000000E+00
DEBUG_STATS_RL:               GtNm1 (DYNAMICS)  max=  0.00000000000000E+00
DEBUG_STATS_RL:               GtNm1 (DYNAMICS) mean=  0.00000000000000E+00
DEBUG_STATS_RL:               GtNm1 (DYNAMICS) S.D.=  0.00000000000000E+00
DEBUG_STATS_RL:               GsNm1 (DYNAMICS)  min=  0.00000000000000E+00
DEBUG_STATS_RL:               GsNm1 (DYNAMICS)  max=  0.00000000000000E+00
DEBUG_STATS_RL:               GsNm1 (DYNAMICS) mean=  0.00000000000000E+00
DEBUG_STATS_RL:               GsNm1 (DYNAMICS) S.D.=  0.00000000000000E+00
DEBUG_STATS_RL:    cg2d_b (SOLVE_FOR_PRESSURE)  min= -7.43169656861245E+03
DEBUG_STATS_RL:    cg2d_b (SOLVE_FOR_PRESSURE)  max=  2.17598296942634E+03
DEBUG_STATS_RL:    cg2d_b (SOLVE_FOR_PRESSURE) mean=  6.96331881044898E-13
DEBUG_STATS_RL:    cg2d_b (SOLVE_FOR_PRESSURE) S.D.=  9.02750100849735E+02
 cg2d: Sum(rhs),rhsMax =   1.41067713066434E-14  1.19612709187932E+00
DEBUG_STATS_RL:    cg2d_x (SOLVE_FOR_PRESSURE)  min= -1.18794061890904E+00
DEBUG_STATS_RL:    cg2d_x (SOLVE_FOR_PRESSURE)  max=  3.24511049575726E+00
DEBUG_STATS_RL:    cg2d_x (SOLVE_FOR_PRESSURE) mean= -3.88654400025836E-02
DEBUG_STATS_RL:    cg2d_x (SOLVE_FOR_PRESSURE) S.D.=  6.81167535252279E-01
DEBUG_STATS_RL:          Uvel (THERMODYNAMICS)  min= -3.57601727936033E-02
DEBUG_STATS_RL:          Uvel (THERMODYNAMICS)  max=  1.04775938290593E-01
DEBUG_STATS_RL:          Uvel (THERMODYNAMICS) mean=  4.39725630125182E-03
DEBUG_STATS_RL:          Uvel (THERMODYNAMICS) S.D.=  1.39028540310335E-02
DEBUG_STATS_RL:          Vvel (THERMODYNAMICS)  min= -1.27584762387762E-01
DEBUG_STATS_RL:          Vvel (THERMODYNAMICS)  max=  6.50083276838834E-02
DEBUG_STATS_RL:          Vvel (THERMODYNAMICS) mean= -3.36887217582008E-03
DEBUG_STATS_RL:          Vvel (THERMODYNAMICS) S.D.=  1.85890275650197E-02
DEBUG_STATS_RL:          Wvel (THERMODYNAMICS)  min= -2.67954696014334E-04
DEBUG_STATS_RL:          Wvel (THERMODYNAMICS)  max=  3.29804232734301E-04
DEBUG_STATS_RL:          Wvel (THERMODYNAMICS) mean= -4.85616750767614E-08
DEBUG_STATS_RL:          Wvel (THERMODYNAMICS) S.D.=  2.84164537902804E-05
DEBUG_STATS_RL:         Theta (THERMODYNAMICS)  min= -1.95963016104374E+00
DEBUG_STATS_RL:         Theta (THERMODYNAMICS)  max=  1.32396343409662E+01
DEBUG_STATS_RL:         Theta (THERMODYNAMICS) mean=  2.41506584132490E+00
DEBUG_STATS_RL:         Theta (THERMODYNAMICS) S.D.=  2.57443936967394E+00
DEBUG_STATS_RL:          Salt (THERMODYNAMICS)  min=  2.76338867569799E+01
DEBUG_STATS_RL:          Salt (THERMODYNAMICS)  max=  3.54511617149686E+01
DEBUG_STATS_RL:          Salt (THERMODYNAMICS) mean=  3.39367496241626E+01
DEBUG_STATS_RL:          Salt (THERMODYNAMICS) S.D.=  1.15359229307638E+00
DEBUG_STATS_RL:         GtNm1 (THERMODYNAMICS)  min=  0.00000000000000E+00
DEBUG_STATS_RL:         GtNm1 (THERMODYNAMICS)  max=  0.00000000000000E+00
DEBUG_STATS_RL:         GtNm1 (THERMODYNAMICS) mean=  0.00000000000000E+00
DEBUG_STATS_RL:         GtNm1 (THERMODYNAMICS) S.D.=  0.00000000000000E+00
DEBUG_STATS_RL:         GsNm1 (THERMODYNAMICS)  min=  0.00000000000000E+00
DEBUG_STATS_RL:         GsNm1 (THERMODYNAMICS)  max=  0.00000000000000E+00
DEBUG_STATS_RL:         GsNm1 (THERMODYNAMICS) mean=  0.00000000000000E+00
DEBUG_STATS_RL:         GsNm1 (THERMODYNAMICS) S.D.=  0.00000000000000E+00
(PID.TID 0000.0001)  MDS_WRITE_FIELD: it,rec,kS,kL,kH=       1     3   1   1   1 file=m_sst_step.0000000001
(PID.TID 0000.0001)  MDS_READ_FIELD: opening global file: xx_atemp.effective.0000000001.data
(PID.TID 0000.0001) EXF_SET_FLD: processing field "climsss",  file: SSS_monthly.labsea1979
(PID.TID 0000.0001) EXF_SET_FLD:   myIter, count0, count1:         7      1      2
(PID.TID 0000.0001) EXF_SET_FLD:   first, changed, fac:   F   F    0.49043715846994540
(PID.TID 0000.0001) EXF_SET_FLD: processing field "uwind",  file: u10m.labsea1979
(PID.TID 0000.0001) EXF_SET_FLD:   myIter, count0, count1:         7      1      2
(PID.TID 0000.0001) EXF_SET_FLD:   first, changed, fac:   F   F    0.49043715846994540
(PID.TID 0000.0001) EXF_SET_FLD: processing field "vwind",  file: v10m.labsea1979
(PID.TID 0000.0001) EXF_SET_FLD:   myIter, count0, count1:         7      1      2
(PID.TID 0000.0001) EXF_SET_FLD:   first, changed, fac:   F   F    0.49043715846994540
(PID.TID 0000.0001) EXF_SET_FLD: processing field "atemp",  file: tair.labsea1979
(PID.TID 0000.0001) EXF_SET_FLD:   myIter, count0, count1:         7      1      2
(PID.TID 0000.0001) EXF_SET_FLD:   first, changed, fac:   F   F    0.49043715846994540
(PID.TID 0000.0001) EXF_SET_FLD: processing field "aqh",  file: qa.labsea1979
(PID.TID 0000.0001) EXF_SET_FLD:   myIter, count0, count1:         7      1      2
(PID.TID 0000.0001) EXF_SET_FLD:   first, changed, fac:   F   F    0.49043715846994540
(PID.TID 0000.0001) EXF_SET_FLD: processing field "precip",  file: prate.labsea1979
(PID.TID 0000.0001) EXF_SET_FLD:   myIter, count0, count1:         7      1      2
(PID.TID 0000.0001) EXF_SET_FLD:   first, changed, fac:   F   F    0.49043715846994540
(PID.TID 0000.0001) EXF_SET_FLD: processing field "swdown",  file: fsh.labsea1979
(PID.TID 0000.0001) EXF_SET_FLD:   myIter, count0, count1:         7      1      2
(PID.TID 0000.0001) EXF_SET_FLD:   first, changed, fac:   F   F    0.49043715846994540
(PID.TID 0000.0001) EXF_SET_FLD: processing field "lwdown",  file: flo.labsea1979
(PID.TID 0000.0001) EXF_SET_FLD:   myIter, count0, count1:         7      1      2
(PID.TID 0000.0001) EXF_SET_FLD:   first, changed, fac:   F   F    0.49043715846994540
DEBUG_STATS_RL: Uice pre  iter (SEAICE_LSR  1)  min= -1.54549194525866E-02
DEBUG_STATS_RL: Uice pre  iter (SEAICE_LSR  1)  max=  2.53524286292195E-01
DEBUG_STATS_RL: Uice pre  iter (SEAICE_LSR  1) mean=  6.68799365320119E-02
DEBUG_STATS_RL: Uice pre  iter (SEAICE_LSR  1) S.D.=  7.54478852962580E-02
DEBUG_STATS_RL: Vice pre  iter (SEAICE_LSR  1)  min= -1.68373183021268E-01
DEBUG_STATS_RL: Vice pre  iter (SEAICE_LSR  1)  max=  8.10859368452303E-02
DEBUG_STATS_RL: Vice pre  iter (SEAICE_LSR  1) mean= -4.94905385200998E-02
DEBUG_STATS_RL: Vice pre  iter (SEAICE_LSR  1) S.D.=  5.89447951203408E-02
DEBUG_STATS_RL: Uice pre  iter (SEAICE_LSR  2)  min= -1.68104910559763E-02
DEBUG_STATS_RL: Uice pre  iter (SEAICE_LSR  2)  max=  2.51381266335640E-01
DEBUG_STATS_RL: Uice pre  iter (SEAICE_LSR  2) mean=  6.26056742417120E-02
DEBUG_STATS_RL: Uice pre  iter (SEAICE_LSR  2) S.D.=  7.23215228186589E-02
DEBUG_STATS_RL: Vice pre  iter (SEAICE_LSR  2)  min= -1.70146515867233E-01
DEBUG_STATS_RL: Vice pre  iter (SEAICE_LSR  2)  max=  7.01571636850258E-02
DEBUG_STATS_RL: Vice pre  iter (SEAICE_LSR  2) mean= -5.12009841743803E-02
DEBUG_STATS_RL: Vice pre  iter (SEAICE_LSR  2) S.D.=  5.84735965012139E-02
DEBUG_STATS_RL:                EtaN (DYNAMICS)  min= -1.21025777222894E-01
DEBUG_STATS_RL:                EtaN (DYNAMICS)  max=  3.30607450971643E-01
DEBUG_STATS_RL:                EtaN (DYNAMICS) mean= -3.95955825447081E-03
DEBUG_STATS_RL:                EtaN (DYNAMICS) S.D.=  6.93964235759688E-02
DEBUG_STATS_RL:                Uvel (DYNAMICS)  min= -3.57601727936033E-02
DEBUG_STATS_RL:                Uvel (DYNAMICS)  max=  1.04775938290593E-01
DEBUG_STATS_RL:                Uvel (DYNAMICS) mean=  4.39725630125182E-03
DEBUG_STATS_RL:                Uvel (DYNAMICS) S.D.=  1.39028540310335E-02
DEBUG_STATS_RL:                Vvel (DYNAMICS)  min= -1.27584762387762E-01
DEBUG_STATS_RL:                Vvel (DYNAMICS)  max=  6.50083276838834E-02
DEBUG_STATS_RL:                Vvel (DYNAMICS) mean= -3.36887217582008E-03
DEBUG_STATS_RL:                Vvel (DYNAMICS) S.D.=  1.85890275650197E-02
DEBUG_STATS_RL:                Wvel (DYNAMICS)  min= -2.67954696014334E-04
DEBUG_STATS_RL:                Wvel (DYNAMICS)  max=  3.29804232734301E-04
DEBUG_STATS_RL:                Wvel (DYNAMICS) mean= -4.85616750767614E-08
DEBUG_STATS_RL:                Wvel (DYNAMICS) S.D.=  2.84164537902804E-05
DEBUG_STATS_RL:               Theta (DYNAMICS)  min= -1.95963016104374E+00
DEBUG_STATS_RL:               Theta (DYNAMICS)  max=  1.32396343409662E+01
DEBUG_STATS_RL:               Theta (DYNAMICS) mean=  2.41506584132490E+00
DEBUG_STATS_RL:               Theta (DYNAMICS) S.D.=  2.57443936967394E+00
DEBUG_STATS_RL:                Salt (DYNAMICS)  min=  2.76338867569799E+01
DEBUG_STATS_RL:                Salt (DYNAMICS)  max=  3.54511617149686E+01
DEBUG_STATS_RL:                Salt (DYNAMICS) mean=  3.39367496241626E+01
DEBUG_STATS_RL:                Salt (DYNAMICS) S.D.=  1.15359229307638E+00
DEBUG_STATS_RL:                  Gu (DYNAMICS)  min= -5.18639383664093E-02
DEBUG_STATS_RL:                  Gu (DYNAMICS)  max=  1.08500044377568E-01
DEBUG_STATS_RL:                  Gu (DYNAMICS) mean=  2.22152146945400E-03
DEBUG_STATS_RL:                  Gu (DYNAMICS) S.D.=  1.62488741545267E-02
DEBUG_STATS_RL:                  Gv (DYNAMICS)  min= -1.40216393355448E-01
DEBUG_STATS_RL:                  Gv (DYNAMICS)  max=  4.07135165171732E-02
DEBUG_STATS_RL:                  Gv (DYNAMICS) mean= -7.84361289825861E-03
DEBUG_STATS_RL:                  Gv (DYNAMICS) S.D.=  1.86090017356288E-02
DEBUG_STATS_RL:               GuNm1 (DYNAMICS)  min= -3.48473911940034E-07
DEBUG_STATS_RL:               GuNm1 (DYNAMICS)  max=  1.90416017948021E-07
DEBUG_STATS_RL:               GuNm1 (DYNAMICS) mean= -3.12306477014106E-09
DEBUG_STATS_RL:               GuNm1 (DYNAMICS) S.D.=  4.09417632400134E-08
DEBUG_STATS_RL:               GvNm1 (DYNAMICS)  min= -2.15359173477236E-07
DEBUG_STATS_RL:               GvNm1 (DYNAMICS)  max=  1.82438063100004E-07
DEBUG_STATS_RL:               GvNm1 (DYNAMICS) mean= -6.53519601921780E-10
DEBUG_STATS_RL:               GvNm1 (DYNAMICS) S.D.=  4.16452354556348E-08
DEBUG_STATS_RL:               GtNm1 (DYNAMICS)  min=  0.00000000000000E+00
DEBUG_STATS_RL:               GtNm1 (DYNAMICS)  max=  0.00000000000000E+00
DEBUG_STATS_RL:               GtNm1 (DYNAMICS) mean=  0.00000000000000E+00
DEBUG_STATS_RL:               GtNm1 (DYNAMICS) S.D.=  0.00000000000000E+00
DEBUG_STATS_RL:               GsNm1 (DYNAMICS)  min=  0.00000000000000E+00
DEBUG_STATS_RL:               GsNm1 (DYNAMICS)  max=  0.00000000000000E+00
DEBUG_STATS_RL:               GsNm1 (DYNAMICS) mean=  0.00000000000000E+00
DEBUG_STATS_RL:               GsNm1 (DYNAMICS) S.D.=  0.00000000000000E+00
DEBUG_STATS_RL:    cg2d_b (SOLVE_FOR_PRESSURE)  min= -7.37985604508148E+03
DEBUG_STATS_RL:    cg2d_b (SOLVE_FOR_PRESSURE)  max=  2.18366607280435E+03
DEBUG_STATS_RL:    cg2d_b (SOLVE_FOR_PRESSURE) mean=  6.18645875268461E-13
DEBUG_STATS_RL:    cg2d_b (SOLVE_FOR_PRESSURE) S.D.=  8.98963545839594E+02
 cg2d: Sum(rhs),rhsMax =   1.34267597040605E-14  1.18778339080378E+00
DEBUG_STATS_RL:    cg2d_x (SOLVE_FOR_PRESSURE)  min= -1.13929441834640E+00
DEBUG_STATS_RL:    cg2d_x (SOLVE_FOR_PRESSURE)  max=  3.20616731162253E+00
DEBUG_STATS_RL:    cg2d_x (SOLVE_FOR_PRESSURE) mean= -4.15672442271453E-02
DEBUG_STATS_RL:    cg2d_x (SOLVE_FOR_PRESSURE) S.D.=  6.51074617232215E-01
DEBUG_STATS_RL:          Uvel (THERMODYNAMICS)  min= -4.34802359621465E-02
DEBUG_STATS_RL:          Uvel (THERMODYNAMICS)  max=  9.99752242998808E-02
DEBUG_STATS_RL:          Uvel (THERMODYNAMICS) mean=  3.48264152589957E-03
DEBUG_STATS_RL:          Uvel (THERMODYNAMICS) S.D.=  1.35343125506116E-02
DEBUG_STATS_RL:          Vvel (THERMODYNAMICS)  min= -1.33439207289254E-01
DEBUG_STATS_RL:          Vvel (THERMODYNAMICS)  max=  5.60260700766945E-02
DEBUG_STATS_RL:          Vvel (THERMODYNAMICS) mean= -4.02696574872961E-03
DEBUG_STATS_RL:          Vvel (THERMODYNAMICS) S.D.=  1.80273334212797E-02
DEBUG_STATS_RL:          Wvel (THERMODYNAMICS)  min= -2.73348162229354E-04
DEBUG_STATS_RL:          Wvel (THERMODYNAMICS)  max=  3.13596923283671E-04
DEBUG_STATS_RL:          Wvel (THERMODYNAMICS) mean=  4.73709411313520E-08
DEBUG_STATS_RL:          Wvel (THERMODYNAMICS) S.D.=  2.82661454219204E-05
DEBUG_STATS_RL:         Theta (THERMODYNAMICS)  min= -1.95943609422387E+00
DEBUG_STATS_RL:         Theta (THERMODYNAMICS)  max=  1.32225113409295E+01
DEBUG_STATS_RL:         Theta (THERMODYNAMICS) mean=  2.41480286619418E+00
DEBUG_STATS_RL:         Theta (THERMODYNAMICS) S.D.=  2.57398860030337E+00
DEBUG_STATS_RL:          Salt (THERMODYNAMICS)  min=  2.76387468555707E+01
DEBUG_STATS_RL:          Salt (THERMODYNAMICS)  max=  3.54510358217953E+01
DEBUG_STATS_RL:          Salt (THERMODYNAMICS) mean=  3.39367601804946E+01
DEBUG_STATS_RL:          Salt (THERMODYNAMICS) S.D.=  1.15334890349729E+00
DEBUG_STATS_RL:         GtNm1 (THERMODYNAMICS)  min=  0.00000000000000E+00
DEBUG_STATS_RL:         GtNm1 (THERMODYNAMICS)  max=  0.00000000000000E+00
DEBUG_STATS_RL:         GtNm1 (THERMODYNAMICS) mean=  0.00000000000000E+00
DEBUG_STATS_RL:         GtNm1 (THERMODYNAMICS) S.D.=  0.00000000000000E+00
DEBUG_STATS_RL:         GsNm1 (THERMODYNAMICS)  min=  0.00000000000000E+00
DEBUG_STATS_RL:         GsNm1 (THERMODYNAMICS)  max=  0.00000000000000E+00
DEBUG_STATS_RL:         GsNm1 (THERMODYNAMICS) mean=  0.00000000000000E+00
DEBUG_STATS_RL:         GsNm1 (THERMODYNAMICS) S.D.=  0.00000000000000E+00
(PID.TID 0000.0001)  MDS_WRITE_FIELD: it,rec,kS,kL,kH=       1     4   1   1   1 file=m_sst_step.0000000001
(PID.TID 0000.0001)  MDS_READ_FIELD: opening global file: xx_atemp.effective.0000000001.data
(PID.TID 0000.0001) EXF_SET_FLD: processing field "climsss",  file: SSS_monthly.labsea1979
(PID.TID 0000.0001) EXF_SET_FLD:   myIter, count0, count1:         8      1      2
(PID.TID 0000.0001) EXF_SET_FLD:   first, changed, fac:   F   F    0.48907103825136611
(PID.TID 0000.0001) EXF_SET_FLD: processing field "uwind",  file: u10m.labsea1979
(PID.TID 0000.0001) EXF_SET_FLD:   myIter, count0, count1:         8      1      2
(PID.TID 0000.0001) EXF_SET_FLD:   first, changed, fac:   F   F    0.48907103825136611
(PID.TID 0000.0001) EXF_SET_FLD: processing field "vwind",  file: v10m.labsea1979
(PID.TID 0000.0001) EXF_SET_FLD:   myIter, count0, count1:         8      1      2
(PID.TID 0000.0001) EXF_SET_FLD:   first, changed, fac:   F   F    0.48907103825136611
(PID.TID 0000.0001) EXF_SET_FLD: processing field "atemp",  file: tair.labsea1979
(PID.TID 0000.0001) EXF_SET_FLD:   myIter, count0, count1:         8      1      2
(PID.TID 0000.0001) EXF_SET_FLD:   first, changed, fac:   F   F    0.48907103825136611
(PID.TID 0000.0001) EXF_SET_FLD: processing field "aqh",  file: qa.labsea1979
(PID.TID 0000.0001) EXF_SET_FLD:   myIter, count0, count1:         8      1      2
(PID.TID 0000.0001) EXF_SET_FLD:   first, changed, fac:   F   F    0.48907103825136611
(PID.TID 0000.0001) EXF_SET_FLD: processing field "precip",  file: prate.labsea1979
(PID.TID 0000.0001) EXF_SET_FLD:   myIter, count0, count1:         8      1      2
(PID.TID 0000.0001) EXF_SET_FLD:   first, changed, fac:   F   F    0.48907103825136611
(PID.TID 0000.0001) EXF_SET_FLD: processing field "swdown",  file: fsh.labsea1979
(PID.TID 0000.0001) EXF_SET_FLD:   myIter, count0, count1:         8      1      2
(PID.TID 0000.0001) EXF_SET_FLD:   first, changed, fac:   F   F    0.48907103825136611
(PID.TID 0000.0001) EXF_SET_FLD: processing field "lwdown",  file: flo.labsea1979
(PID.TID 0000.0001) EXF_SET_FLD:   myIter, count0, count1:         8      1      2
(PID.TID 0000.0001) EXF_SET_FLD:   first, changed, fac:   F   F    0.48907103825136611
DEBUG_STATS_RL: Uice pre  iter (SEAICE_LSR  1)  min= -1.95687208100102E-02
DEBUG_STATS_RL: Uice pre  iter (SEAICE_LSR  1)  max=  2.56695252608154E-01
DEBUG_STATS_RL: Uice pre  iter (SEAICE_LSR  1) mean=  6.10102626008752E-02
DEBUG_STATS_RL: Uice pre  iter (SEAICE_LSR  1) S.D.=  7.26515133443026E-02
DEBUG_STATS_RL: Vice pre  iter (SEAICE_LSR  1)  min= -1.74351841639993E-01
DEBUG_STATS_RL: Vice pre  iter (SEAICE_LSR  1)  max=  6.17815719868620E-02
DEBUG_STATS_RL: Vice pre  iter (SEAICE_LSR  1) mean= -5.34332922103127E-02
DEBUG_STATS_RL: Vice pre  iter (SEAICE_LSR  1) S.D.=  5.91879685811095E-02
DEBUG_STATS_RL: Uice pre  iter (SEAICE_LSR  2)  min= -2.10631196463131E-02
DEBUG_STATS_RL: Uice pre  iter (SEAICE_LSR  2)  max=  2.47741110498678E-01
DEBUG_STATS_RL: Uice pre  iter (SEAICE_LSR  2) mean=  5.58563099525574E-02
DEBUG_STATS_RL: Uice pre  iter (SEAICE_LSR  2) S.D.=  6.83562873807025E-02
DEBUG_STATS_RL: Vice pre  iter (SEAICE_LSR  2)  min= -1.71270231909308E-01
DEBUG_STATS_RL: Vice pre  iter (SEAICE_LSR  2)  max=  5.00408736690829E-02
DEBUG_STATS_RL: Vice pre  iter (SEAICE_LSR  2) mean= -5.35471708937630E-02
DEBUG_STATS_RL: Vice pre  iter (SEAICE_LSR  2) S.D.=  5.75117440524867E-02
DEBUG_STATS_RL:                EtaN (DYNAMICS)  min= -1.16069768363258E-01
DEBUG_STATS_RL:                EtaN (DYNAMICS)  max=  3.26639972250553E-01
DEBUG_STATS_RL:                EtaN (DYNAMICS) mean= -4.23481440025525E-03
DEBUG_STATS_RL:                EtaN (DYNAMICS) S.D.=  6.63305979494085E-02
DEBUG_STATS_RL:                Uvel (DYNAMICS)  min= -4.34802359621465E-02
DEBUG_STATS_RL:                Uvel (DYNAMICS)  max=  9.99752242998808E-02
DEBUG_STATS_RL:                Uvel (DYNAMICS) mean=  3.48264152589957E-03
DEBUG_STATS_RL:                Uvel (DYNAMICS) S.D.=  1.35343125506116E-02
DEBUG_STATS_RL:                Vvel (DYNAMICS)  min= -1.33439207289254E-01
DEBUG_STATS_RL:                Vvel (DYNAMICS)  max=  5.60260700766945E-02
DEBUG_STATS_RL:                Vvel (DYNAMICS) mean= -4.02696574872961E-03
DEBUG_STATS_RL:                Vvel (DYNAMICS) S.D.=  1.80273334212797E-02
DEBUG_STATS_RL:                Wvel (DYNAMICS)  min= -2.73348162229354E-04
DEBUG_STATS_RL:                Wvel (DYNAMICS)  max=  3.13596923283671E-04
DEBUG_STATS_RL:                Wvel (DYNAMICS) mean=  4.73709411313520E-08
DEBUG_STATS_RL:                Wvel (DYNAMICS) S.D.=  2.82661454219204E-05
DEBUG_STATS_RL:               Theta (DYNAMICS)  min= -1.95943609422387E+00
DEBUG_STATS_RL:               Theta (DYNAMICS)  max=  1.32225113409295E+01
DEBUG_STATS_RL:               Theta (DYNAMICS) mean=  2.41480286619418E+00
DEBUG_STATS_RL:               Theta (DYNAMICS) S.D.=  2.57398860030337E+00
DEBUG_STATS_RL:                Salt (DYNAMICS)  min=  2.76387468555707E+01
DEBUG_STATS_RL:                Salt (DYNAMICS)  max=  3.54510358217953E+01
DEBUG_STATS_RL:                Salt (DYNAMICS) mean=  3.39367601804946E+01
DEBUG_STATS_RL:                Salt (DYNAMICS) S.D.=  1.15334890349729E+00
DEBUG_STATS_RL:                  Gu (DYNAMICS)  min= -5.98368153074020E-02
DEBUG_STATS_RL:                  Gu (DYNAMICS)  max=  9.68873121299251E-02
DEBUG_STATS_RL:                  Gu (DYNAMICS) mean=  1.30194972947503E-03
DEBUG_STATS_RL:                  Gu (DYNAMICS) S.D.=  1.61566615235326E-02
DEBUG_STATS_RL:                  Gv (DYNAMICS)  min= -1.36271217267994E-01
DEBUG_STATS_RL:                  Gv (DYNAMICS)  max=  3.83573237348583E-02
DEBUG_STATS_RL:                  Gv (DYNAMICS) mean= -7.71950831958569E-03
DEBUG_STATS_RL:                  Gv (DYNAMICS) S.D.=  1.77533563667874E-02
DEBUG_STATS_RL:               GuNm1 (DYNAMICS)  min= -3.40955168137046E-07
DEBUG_STATS_RL:               GuNm1 (DYNAMICS)  max=  1.82641400821284E-07
DEBUG_STATS_RL:               GuNm1 (DYNAMICS) mean= -2.79196714442664E-09
DEBUG_STATS_RL:               GuNm1 (DYNAMICS) S.D.=  4.07453533304239E-08
DEBUG_STATS_RL:               GvNm1 (DYNAMICS)  min= -2.14559263714299E-07
DEBUG_STATS_RL:               GvNm1 (DYNAMICS)  max=  1.94148824775153E-07
DEBUG_STATS_RL:               GvNm1 (DYNAMICS) mean= -4.04169206802268E-10
DEBUG_STATS_RL:               GvNm1 (DYNAMICS) S.D.=  4.19222729579498E-08
DEBUG_STATS_RL:               GtNm1 (DYNAMICS)  min=  0.00000000000000E+00
DEBUG_STATS_RL:               GtNm1 (DYNAMICS)  max=  0.00000000000000E+00
DEBUG_STATS_RL:               GtNm1 (DYNAMICS) mean=  0.00000000000000E+00
DEBUG_STATS_RL:               GtNm1 (DYNAMICS) S.D.=  0.00000000000000E+00
DEBUG_STATS_RL:               GsNm1 (DYNAMICS)  min=  0.00000000000000E+00
DEBUG_STATS_RL:               GsNm1 (DYNAMICS)  max=  0.00000000000000E+00
DEBUG_STATS_RL:               GsNm1 (DYNAMICS) mean=  0.00000000000000E+00
DEBUG_STATS_RL:               GsNm1 (DYNAMICS) S.D.=  0.00000000000000E+00
DEBUG_STATS_RL:    cg2d_b (SOLVE_FOR_PRESSURE)  min= -7.29975929937793E+03
DEBUG_STATS_RL:    cg2d_b (SOLVE_FOR_PRESSURE)  max=  2.19478299507054E+03
DEBUG_STATS_RL:    cg2d_b (SOLVE_FOR_PRESSURE) mean= -3.96767063648440E-13
DEBUG_STATS_RL:    cg2d_b (SOLVE_FOR_PRESSURE) S.D.=  8.94146290227710E+02
 cg2d: Sum(rhs),rhsMax =  -6.92501611609941E-15  1.17489186776824E+00
DEBUG_STATS_RL:    cg2d_x (SOLVE_FOR_PRESSURE)  min= -1.08771127617308E+00
DEBUG_STATS_RL:    cg2d_x (SOLVE_FOR_PRESSURE)  max=  3.12128519797376E+00
DEBUG_STATS_RL:    cg2d_x (SOLVE_FOR_PRESSURE) mean= -4.19588396852395E-02
DEBUG_STATS_RL:    cg2d_x (SOLVE_FOR_PRESSURE) S.D.=  6.20262122262901E-01
DEBUG_STATS_RL:          Uvel (THERMODYNAMICS)  min= -5.12375198242059E-02
DEBUG_STATS_RL:          Uvel (THERMODYNAMICS)  max=  8.84896388076339E-02
DEBUG_STATS_RL:          Uvel (THERMODYNAMICS) mean=  2.55769138538291E-03
DEBUG_STATS_RL:          Uvel (THERMODYNAMICS) S.D.=  1.29064693910456E-02
DEBUG_STATS_RL:          Vvel (THERMODYNAMICS)  min= -1.29344604199479E-01
DEBUG_STATS_RL:          Vvel (THERMODYNAMICS)  max=  4.58633296186249E-02
DEBUG_STATS_RL:          Vvel (THERMODYNAMICS) mean= -4.14107843006319E-03
DEBUG_STATS_RL:          Vvel (THERMODYNAMICS) S.D.=  1.66082836245794E-02
DEBUG_STATS_RL:          Wvel (THERMODYNAMICS)  min= -2.60848991809587E-04
DEBUG_STATS_RL:          Wvel (THERMODYNAMICS)  max=  2.85731299794369E-04
DEBUG_STATS_RL:          Wvel (THERMODYNAMICS) mean=  1.36793666178293E-07
DEBUG_STATS_RL:          Wvel (THERMODYNAMICS) S.D.=  2.70580054557619E-05
DEBUG_STATS_RL:         Theta (THERMODYNAMICS)  min= -1.95932886747261E+00
DEBUG_STATS_RL:         Theta (THERMODYNAMICS)  max=  1.32010303660582E+01
DEBUG_STATS_RL:         Theta (THERMODYNAMICS) mean=  2.41452315045422E+00
DEBUG_STATS_RL:         Theta (THERMODYNAMICS) S.D.=  2.57350774067654E+00
DEBUG_STATS_RL:          Salt (THERMODYNAMICS)  min=  2.76435505129419E+01
DEBUG_STATS_RL:          Salt (THERMODYNAMICS)  max=  3.54508660670958E+01
DEBUG_STATS_RL:          Salt (THERMODYNAMICS) mean=  3.39367749828872E+01
DEBUG_STATS_RL:          Salt (THERMODYNAMICS) S.D.=  1.15309738582237E+00
DEBUG_STATS_RL:         GtNm1 (THERMODYNAMICS)  min=  0.00000000000000E+00
DEBUG_STATS_RL:         GtNm1 (THERMODYNAMICS)  max=  0.00000000000000E+00
DEBUG_STATS_RL:         GtNm1 (THERMODYNAMICS) mean=  0.00000000000000E+00
DEBUG_STATS_RL:         GtNm1 (THERMODYNAMICS) S.D.=  0.00000000000000E+00
DEBUG_STATS_RL:         GsNm1 (THERMODYNAMICS)  min=  0.00000000000000E+00
DEBUG_STATS_RL:         GsNm1 (THERMODYNAMICS)  max=  0.00000000000000E+00
DEBUG_STATS_RL:         GsNm1 (THERMODYNAMICS) mean=  0.00000000000000E+00
DEBUG_STATS_RL:         GsNm1 (THERMODYNAMICS) S.D.=  0.00000000000000E+00
(PID.TID 0000.0001) Did not write pickup because writePickupAtEnd = FALSE
(PID.TID 0000.0001)  MDS_WRITE_FIELD: it,rec,kS,kL,kH=       1     5   1   1   1 file=m_sst_step.0000000001
(PID.TID 0000.0001) gencost # 03
(PID.TID 0000.0001)  MDS_READ_FIELD: opening global file: sigma_sst.bin
(PID.TID 0000.0001)  MDS_READ_FIELD: opening global file: m_sst_step.0000000001.data
(PID.TID 0000.0001)  MDS_READ_FIELD: opening global file: labsea_SST_fields_t5
(PID.TID 0000.0001)  MDS_WRITE_FIELD: it,rec,kS,kL,kH=       1     1   1   1   1 file=misfit_sst
(PID.TID 0000.0001)  MDS_READ_FIELD: opening global file: sigma_sst.bin
(PID.TID 0000.0001)  MDS_READ_FIELD: opening global file: m_sst_step.0000000001.data
(PID.TID 0000.0001)  MDS_READ_FIELD: opening global file: labsea_SST_fields_t5
(PID.TID 0000.0001)  MDS_WRITE_FIELD: it,rec,kS,kL,kH=       1     2   1   1   1 file=misfit_sst
(PID.TID 0000.0001)  MDS_READ_FIELD: opening global file: sigma_sst.bin
(PID.TID 0000.0001)  MDS_READ_FIELD: opening global file: m_sst_step.0000000001.data
(PID.TID 0000.0001)  MDS_READ_FIELD: opening global file: labsea_SST_fields_t5
(PID.TID 0000.0001)  MDS_WRITE_FIELD: it,rec,kS,kL,kH=       1     3   1   1   1 file=misfit_sst
(PID.TID 0000.0001)  MDS_READ_FIELD: opening global file: sigma_sst.bin
(PID.TID 0000.0001)  MDS_READ_FIELD: opening global file: m_sst_step.0000000001.data
(PID.TID 0000.0001)  MDS_READ_FIELD: opening global file: labsea_SST_fields_t5
(PID.TID 0000.0001)  MDS_WRITE_FIELD: it,rec,kS,kL,kH=       1     4   1   1   1 file=misfit_sst
(PID.TID 0000.0001)  MDS_READ_FIELD: opening global file: sigma_sst.bin
(PID.TID 0000.0001)  MDS_READ_FIELD: opening global file: m_sst_step.0000000001.data
(PID.TID 0000.0001)  MDS_READ_FIELD: opening global file: labsea_SST_fields_t5
(PID.TID 0000.0001)  MDS_WRITE_FIELD: it,rec,kS,kL,kH=       1     5   1   1   1 file=misfit_sst
(PID.TID 0000.0001)  MDS_READ_FIELD: opening global file: xx_atemp.0000000001.data
(PID.TID 0000.0001)  MDS_READ_FIELD: opening global file: xx_atemp.0000000001.data
(PID.TID 0000.0001)  MDS_READ_FIELD: opening global file: xx_atemp.0000000001.data
(PID.TID 0000.0001)  MDS_READ_FIELD: opening global file: xx_atemp.0000000001.data
(PID.TID 0000.0001)  MDS_READ_FIELD: opening global file: xx_atemp.0000000001.data
(PID.TID 0000.0001)  MDS_READ_FIELD: opening global file: xx_atemp.0000000001.data
(PID.TID 0000.0001)  MDS_READ_FIELD: opening global file: xx_atemp.0000000001.data
(PID.TID 0000.0001)  MDS_READ_FIELD: opening global file: xx_atemp.0000000001.data
(PID.TID 0000.0001)  MDS_READ_FIELD: opening global file: xx_atemp.0000000001.data
(PID.TID 0000.0001)  MDS_READ_FIELD: opening global file: xx_atemp.0000000001.data
(PID.TID 0000.0001)  MDS_READ_FIELD: opening global file: xx_atemp.0000000001.data
 --> f_ice     = 0.000000000000000D+00
 --> f_smrarea = 0.000000000000000D+00
 --> f_smrarea = 0.000000000000000D+00
 --> f_smrarea = 0.000000000000000D+00
(PID.TID 0000.0001)  --> f_gencost = 0.527453128215446D+04 3
(PID.TID 0000.0001)  --> f_gentim2d = 0.243374980010000D+03 1
(PID.TID 0000.0001)  --> fc               = 0.527453128215446D+04
(PID.TID 0000.0001)  cost_Final: final cost function =  0.527453128215446D+04
(PID.TID 0000.0001) 
(PID.TID 0000.0001)              cost function evaluation finished.
(PID.TID 0000.0001) 
(PID.TID 0000.0001)   early fc =  0.000000000000000D+00
(PID.TID 0000.0001)   local fc =  0.527453128215446D+04
(PID.TID 0000.0001)  global fc =  0.527453128215446D+04
(PID.TID 0000.0001) grdchk perturb(-)fc: fcpertminus =  5.27453128215446E+03
(PID.TID 0000.0001)  MDS_READ_FIELD: opening global file: xx_atemp.0000000001.data
(PID.TID 0000.0001)  MDS_WRITE_FIELD: it,rec,kS,kL,kH=       1     1   1   1   1 file=xx_atemp.0000000001
grad-res -------------------------------
 grad-res     0    1    6    8    1    1    1    1   5.27453128215E+03  5.27453128215E+03  5.27453128215E+03
 grad-res     0    1    1   75    0    1    1    1   0.00000000000E+00  0.00000000000E+00  0.00000000000E+00
(PID.TID 0000.0001)  ADM  ref_cost_function      =  5.27453128215446E+03
(PID.TID 0000.0001)  ADM  adjoint_gradient       =  0.00000000000000E+00
(PID.TID 0000.0001)  ADM  finite-diff_grad       =  0.00000000000000E+00
(PID.TID 0000.0001) ====== End of gradient-check number   1 (ierr=  0) =======
(PID.TID 0000.0001) ====== Starts gradient-check number   2 (=ichknum) =======
 ph-test icomp, ncvarcomp, ichknum           76        1650           2
 ph-grd _loc: bi, bj, icomptest, ichknum            1           1          75           2
 ph-grd -->hit<--            7           8           1           1
(PID.TID 0000.0001) grdchk pos: i,j,k=    7    8    1 ; bi,bj=   1   1 ; iobc=  1 ; rec=   1
(PID.TID 0000.0001)  MDS_READ_FIELD: opening global file: adxx_atemp.0000000001.data
(PID.TID 0000.0001)  MDS_READ_FIELD: opening global file: xx_atemp.0000000001.data
(PID.TID 0000.0001)  MDS_WRITE_FIELD: it,rec,kS,kL,kH=       1     1   1   1   1 file=xx_atemp.0000000001
(PID.TID 0000.0001)  MDS_READ_META: opening file: pickup.0000000005.meta
(PID.TID 0000.0001)  nRecords = 141 ; filePrec =  64 ; fileIter =         5
(PID.TID 0000.0001)     nDims =   2 , dims:
(PID.TID 0000.0001)    1:  20   1  20
(PID.TID 0000.0001)    2:  16   1  16
(PID.TID 0000.0001)     nFlds =   9 , nFl3D =   6 , fields:
(PID.TID 0000.0001)  >Uvel    < >Vvel    < >Theta   < >Salt    < >GuNm1   < >GvNm1   < >EtaN    < >dEtaHdt < >EtaH    <
(PID.TID 0000.0001) missingVal=  1.00000000000000E+00 ; nTimRec =   1 , timeList:
(PID.TID 0000.0001)   1.800000000000E+04
(PID.TID 0000.0001) READ_MFLDS_3D_RL: read field: "Uvel    ", #   1 in fldList, rec=   1
(PID.TID 0000.0001)  MDS_READ_FIELD: opening global file: pickup.0000000005.data
(PID.TID 0000.0001) READ_MFLDS_3D_RL: read field: "Vvel    ", #   2 in fldList, rec=   2
(PID.TID 0000.0001)  MDS_READ_FIELD: opening global file: pickup.0000000005.data
(PID.TID 0000.0001) READ_MFLDS_3D_RL: read field: "Theta   ", #   3 in fldList, rec=   3
(PID.TID 0000.0001)  MDS_READ_FIELD: opening global file: pickup.0000000005.data
(PID.TID 0000.0001) READ_MFLDS_3D_RL: read field: "Salt    ", #   4 in fldList, rec=   4
(PID.TID 0000.0001)  MDS_READ_FIELD: opening global file: pickup.0000000005.data
(PID.TID 0000.0001) READ_MFLDS_3D_RL: read field: "GuNm1   ", #   5 in fldList, rec=   5
(PID.TID 0000.0001)  MDS_READ_FIELD: opening global file: pickup.0000000005.data
(PID.TID 0000.0001) READ_MFLDS_3D_RL: read field: "GvNm1   ", #   6 in fldList, rec=   6
(PID.TID 0000.0001)  MDS_READ_FIELD: opening global file: pickup.0000000005.data
(PID.TID 0000.0001) READ_MFLDS_3D_RL: read field: "EtaN    ", #   7 in fldList, rec= 139
(PID.TID 0000.0001)  MDS_READ_FIELD: opening global file: pickup.0000000005.data
(PID.TID 0000.0001) READ_MFLDS_CHECK: - normal end ; reset MFLDS file-name: pickup.0000000005
(PID.TID 0000.0001)  MDS_READ_FIELD: opening global file: pickup_cd.0000000005.data
(PID.TID 0000.0001)  MDS_READ_FIELD: opening global file: pickup_cd.0000000005.data
(PID.TID 0000.0001)  MDS_READ_FIELD: opening global file: pickup_cd.0000000005.data
(PID.TID 0000.0001)  MDS_READ_FIELD: opening global file: pickup_cd.0000000005.data
(PID.TID 0000.0001)  MDS_READ_FIELD: opening global file: pickup_cd.0000000005.data
(PID.TID 0000.0001)  MDS_READ_META: opening file: pickup_seaice.0000000005.meta
(PID.TID 0000.0001)  nRecords =  13 ; filePrec =  64 ; fileIter =         5
(PID.TID 0000.0001)     nDims =   2 , dims:
(PID.TID 0000.0001)    1:  20   1  20
(PID.TID 0000.0001)    2:  16   1  16
(PID.TID 0000.0001)     nFlds =   7 , nFl3D =   1 , fields:
(PID.TID 0000.0001)  >siTICES < >siAREA  < >siHEFF  < >siHSNOW < >siHSALT < >siUICE  < >siVICE  <
(PID.TID 0000.0001) missingVal=  1.00000000000000E+00 ; nTimRec =   1 , timeList:
(PID.TID 0000.0001)   1.800000000000E+04
(PID.TID 0000.0001) READ_MFLDS_3D_RL: read field: "siTICES ", #   1 in fldList, rec=   1
(PID.TID 0000.0001)  MDS_READ_FIELD: opening global file: pickup_seaice.0000000005.data
(PID.TID 0000.0001) READ_MFLDS_3D_RL: read field: "siAREA  ", #   2 in fldList, rec=   8
(PID.TID 0000.0001)  MDS_READ_FIELD: opening global file: pickup_seaice.0000000005.data
(PID.TID 0000.0001) READ_MFLDS_3D_RL: read field: "siHEFF  ", #   3 in fldList, rec=   9
(PID.TID 0000.0001)  MDS_READ_FIELD: opening global file: pickup_seaice.0000000005.data
(PID.TID 0000.0001) READ_MFLDS_3D_RL: read field: "siHSNOW ", #   4 in fldList, rec=  10
(PID.TID 0000.0001)  MDS_READ_FIELD: opening global file: pickup_seaice.0000000005.data
(PID.TID 0000.0001) READ_MFLDS_3D_RL: read field: "siHSALT ", #   5 in fldList, rec=  11
(PID.TID 0000.0001)  MDS_READ_FIELD: opening global file: pickup_seaice.0000000005.data
(PID.TID 0000.0001) READ_MFLDS_3D_RL: read field: "siUICE  ", #   6 in fldList, rec=  12
(PID.TID 0000.0001)  MDS_READ_FIELD: opening global file: pickup_seaice.0000000005.data
(PID.TID 0000.0001) READ_MFLDS_3D_RL: read field: "siVICE  ", #   7 in fldList, rec=  13
(PID.TID 0000.0001)  MDS_READ_FIELD: opening global file: pickup_seaice.0000000005.data
(PID.TID 0000.0001) READ_MFLDS_CHECK: - normal end ; reset MFLDS file-name: pickup_seaice.0000000005
(PID.TID 0000.0001) CTRL_INIT_REC: Getting record indices for xx_atemp
(PID.TID 0000.0001) CTRL_INIT_REC: Record indices for xx_atemp:
(PID.TID 0000.0001) CTRL_INIT_REC: startrec =          6, endrec =         11
(PID.TID 0000.0001)  MDS_READ_FIELD: opening global file: xx_atemp.0000000001.data
(PID.TID 0000.0001)  MDS_WRITE_FIELD: it,rec,kS,kL,kH=       1     1   1   1   1 file=xx_atemp.effective.0000000001
(PID.TID 0000.0001)  MDS_READ_FIELD: opening global file: xx_atemp.0000000001.data
(PID.TID 0000.0001)  MDS_WRITE_FIELD: it,rec,kS,kL,kH=       1     2   1   1   1 file=xx_atemp.effective.0000000001
(PID.TID 0000.0001)  MDS_READ_FIELD: opening global file: xx_atemp.0000000001.data
(PID.TID 0000.0001)  MDS_WRITE_FIELD: it,rec,kS,kL,kH=       1     3   1   1   1 file=xx_atemp.effective.0000000001
(PID.TID 0000.0001)  MDS_READ_FIELD: opening global file: xx_atemp.0000000001.data
(PID.TID 0000.0001)  MDS_WRITE_FIELD: it,rec,kS,kL,kH=       1     4   1   1   1 file=xx_atemp.effective.0000000001
(PID.TID 0000.0001)  MDS_READ_FIELD: opening global file: xx_atemp.0000000001.data
(PID.TID 0000.0001)  MDS_WRITE_FIELD: it,rec,kS,kL,kH=       1     5   1   1   1 file=xx_atemp.effective.0000000001
(PID.TID 0000.0001)  MDS_READ_FIELD: opening global file: xx_atemp.0000000001.data
(PID.TID 0000.0001)  MDS_WRITE_FIELD: it,rec,kS,kL,kH=       1     6   1   1   1 file=xx_atemp.effective.0000000001
(PID.TID 0000.0001)  MDS_READ_FIELD: opening global file: xx_atemp.effective.0000000001.data
(PID.TID 0000.0001)  MDS_READ_FIELD: opening global file: ones_64b.bin
(PID.TID 0000.0001)  MDS_WRITE_FIELD: it,rec,kS,kL,kH=       1     1   1   1   1 file=xx_atemp.effective.0000000001
(PID.TID 0000.0001)  MDS_READ_FIELD: opening global file: xx_atemp.effective.0000000001.data
(PID.TID 0000.0001)  MDS_READ_FIELD: opening global file: ones_64b.bin
(PID.TID 0000.0001)  MDS_WRITE_FIELD: it,rec,kS,kL,kH=       1     2   1   1   1 file=xx_atemp.effective.0000000001
(PID.TID 0000.0001)  MDS_READ_FIELD: opening global file: xx_atemp.effective.0000000001.data
(PID.TID 0000.0001)  MDS_READ_FIELD: opening global file: ones_64b.bin
(PID.TID 0000.0001)  MDS_WRITE_FIELD: it,rec,kS,kL,kH=       1     3   1   1   1 file=xx_atemp.effective.0000000001
(PID.TID 0000.0001)  MDS_READ_FIELD: opening global file: xx_atemp.effective.0000000001.data
(PID.TID 0000.0001)  MDS_READ_FIELD: opening global file: ones_64b.bin
(PID.TID 0000.0001)  MDS_WRITE_FIELD: it,rec,kS,kL,kH=       1     4   1   1   1 file=xx_atemp.effective.0000000001
(PID.TID 0000.0001)  MDS_READ_FIELD: opening global file: xx_atemp.effective.0000000001.data
(PID.TID 0000.0001)  MDS_READ_FIELD: opening global file: ones_64b.bin
(PID.TID 0000.0001)  MDS_WRITE_FIELD: it,rec,kS,kL,kH=       1     5   1   1   1 file=xx_atemp.effective.0000000001
(PID.TID 0000.0001)  MDS_READ_FIELD: opening global file: xx_atemp.effective.0000000001.data
(PID.TID 0000.0001)  MDS_READ_FIELD: opening global file: ones_64b.bin
(PID.TID 0000.0001)  MDS_WRITE_FIELD: it,rec,kS,kL,kH=       1     6   1   1   1 file=xx_atemp.effective.0000000001
(PID.TID 0000.0001) // =======================================================
(PID.TID 0000.0001) // Model current state
(PID.TID 0000.0001) // =======================================================
(PID.TID 0000.0001) 
(PID.TID 0000.0001)  MDS_WRITE_FIELD: it,rec,kS,kL,kH=       1     1   1   1   1 file=m_sst_step.0000000001
(PID.TID 0000.0001)  MDS_READ_FIELD: opening global file: xx_atemp.effective.0000000001.data
(PID.TID 0000.0001)  MDS_READ_FIELD: opening global file: xx_atemp.effective.0000000001.data
(PID.TID 0000.0001) EXF_SET_FLD: processing field "climsss",  file: SSS_monthly.labsea1979
(PID.TID 0000.0001) EXF_SET_FLD:   myIter, count0, count1:         5      1      2
(PID.TID 0000.0001) EXF_SET_FLD:   first, changed, fac:   T   F    0.49316939890710387
(PID.TID 0000.0001) EXF_SET_FLD: field "climsss", it=         5, loading rec=     1
(PID.TID 0000.0001) EXF_SET_FLD:   from file: "SSS_monthly.labsea1979"
(PID.TID 0000.0001)  MDS_READ_FIELD: opening global file: SSS_monthly.labsea1979
(PID.TID 0000.0001) EXF_SET_FLD: field "climsss", it=         5, loading rec=     2
(PID.TID 0000.0001) EXF_SET_FLD:   from file: "SSS_monthly.labsea1979"
(PID.TID 0000.0001)  MDS_READ_FIELD: opening global file: SSS_monthly.labsea1979
(PID.TID 0000.0001) EXF_SET_FLD: processing field "uwind",  file: u10m.labsea1979
(PID.TID 0000.0001) EXF_SET_FLD:   myIter, count0, count1:         5      1      2
(PID.TID 0000.0001) EXF_SET_FLD:   first, changed, fac:   T   F    0.49316939890710387
(PID.TID 0000.0001) EXF_SET_FLD: field "uwind", it=         5, loading rec=     1
(PID.TID 0000.0001) EXF_SET_FLD:   from file: "u10m.labsea1979"
(PID.TID 0000.0001)  MDS_READ_FIELD: opening global file: u10m.labsea1979
(PID.TID 0000.0001) EXF_SET_FLD: field "uwind", it=         5, loading rec=     2
(PID.TID 0000.0001) EXF_SET_FLD:   from file: "u10m.labsea1979"
(PID.TID 0000.0001)  MDS_READ_FIELD: opening global file: u10m.labsea1979
(PID.TID 0000.0001) EXF_SET_FLD: processing field "vwind",  file: v10m.labsea1979
(PID.TID 0000.0001) EXF_SET_FLD:   myIter, count0, count1:         5      1      2
(PID.TID 0000.0001) EXF_SET_FLD:   first, changed, fac:   T   F    0.49316939890710387
(PID.TID 0000.0001) EXF_SET_FLD: field "vwind", it=         5, loading rec=     1
(PID.TID 0000.0001) EXF_SET_FLD:   from file: "v10m.labsea1979"
(PID.TID 0000.0001)  MDS_READ_FIELD: opening global file: v10m.labsea1979
(PID.TID 0000.0001) EXF_SET_FLD: field "vwind", it=         5, loading rec=     2
(PID.TID 0000.0001) EXF_SET_FLD:   from file: "v10m.labsea1979"
(PID.TID 0000.0001)  MDS_READ_FIELD: opening global file: v10m.labsea1979
(PID.TID 0000.0001) EXF_SET_FLD: processing field "atemp",  file: tair.labsea1979
(PID.TID 0000.0001) EXF_SET_FLD:   myIter, count0, count1:         5      1      2
(PID.TID 0000.0001) EXF_SET_FLD:   first, changed, fac:   T   F    0.49316939890710387
(PID.TID 0000.0001) EXF_SET_FLD: field "atemp", it=         5, loading rec=     1
(PID.TID 0000.0001) EXF_SET_FLD:   from file: "tair.labsea1979"
(PID.TID 0000.0001)  MDS_READ_FIELD: opening global file: tair.labsea1979
(PID.TID 0000.0001) EXF_SET_FLD: field "atemp", it=         5, loading rec=     2
(PID.TID 0000.0001) EXF_SET_FLD:   from file: "tair.labsea1979"
(PID.TID 0000.0001)  MDS_READ_FIELD: opening global file: tair.labsea1979
(PID.TID 0000.0001) EXF_SET_FLD: processing field "aqh",  file: qa.labsea1979
(PID.TID 0000.0001) EXF_SET_FLD:   myIter, count0, count1:         5      1      2
(PID.TID 0000.0001) EXF_SET_FLD:   first, changed, fac:   T   F    0.49316939890710387
(PID.TID 0000.0001) EXF_SET_FLD: field "aqh", it=         5, loading rec=     1
(PID.TID 0000.0001) EXF_SET_FLD:   from file: "qa.labsea1979"
(PID.TID 0000.0001)  MDS_READ_FIELD: opening global file: qa.labsea1979
(PID.TID 0000.0001) EXF_SET_FLD: field "aqh", it=         5, loading rec=     2
(PID.TID 0000.0001) EXF_SET_FLD:   from file: "qa.labsea1979"
(PID.TID 0000.0001)  MDS_READ_FIELD: opening global file: qa.labsea1979
(PID.TID 0000.0001) EXF_SET_FLD: processing field "precip",  file: prate.labsea1979
(PID.TID 0000.0001) EXF_SET_FLD:   myIter, count0, count1:         5      1      2
(PID.TID 0000.0001) EXF_SET_FLD:   first, changed, fac:   T   F    0.49316939890710387
(PID.TID 0000.0001) EXF_SET_FLD: field "precip", it=         5, loading rec=     1
(PID.TID 0000.0001) EXF_SET_FLD:   from file: "prate.labsea1979"
(PID.TID 0000.0001)  MDS_READ_FIELD: opening global file: prate.labsea1979
(PID.TID 0000.0001) EXF_SET_FLD: field "precip", it=         5, loading rec=     2
(PID.TID 0000.0001) EXF_SET_FLD:   from file: "prate.labsea1979"
(PID.TID 0000.0001)  MDS_READ_FIELD: opening global file: prate.labsea1979
(PID.TID 0000.0001) EXF_SET_FLD: processing field "swdown",  file: fsh.labsea1979
(PID.TID 0000.0001) EXF_SET_FLD:   myIter, count0, count1:         5      1      2
(PID.TID 0000.0001) EXF_SET_FLD:   first, changed, fac:   T   F    0.49316939890710387
(PID.TID 0000.0001) EXF_SET_FLD: field "swdown", it=         5, loading rec=     1
(PID.TID 0000.0001) EXF_SET_FLD:   from file: "fsh.labsea1979"
(PID.TID 0000.0001)  MDS_READ_FIELD: opening global file: fsh.labsea1979
(PID.TID 0000.0001) EXF_SET_FLD: field "swdown", it=         5, loading rec=     2
(PID.TID 0000.0001) EXF_SET_FLD:   from file: "fsh.labsea1979"
(PID.TID 0000.0001)  MDS_READ_FIELD: opening global file: fsh.labsea1979
(PID.TID 0000.0001) EXF_SET_FLD: processing field "lwdown",  file: flo.labsea1979
(PID.TID 0000.0001) EXF_SET_FLD:   myIter, count0, count1:         5      1      2
(PID.TID 0000.0001) EXF_SET_FLD:   first, changed, fac:   T   F    0.49316939890710387
(PID.TID 0000.0001) EXF_SET_FLD: field "lwdown", it=         5, loading rec=     1
(PID.TID 0000.0001) EXF_SET_FLD:   from file: "flo.labsea1979"
(PID.TID 0000.0001)  MDS_READ_FIELD: opening global file: flo.labsea1979
(PID.TID 0000.0001) EXF_SET_FLD: field "lwdown", it=         5, loading rec=     2
(PID.TID 0000.0001) EXF_SET_FLD:   from file: "flo.labsea1979"
(PID.TID 0000.0001)  MDS_READ_FIELD: opening global file: flo.labsea1979
DEBUG_STATS_RL: Uice pre  iter (SEAICE_LSR  1)  min= -9.02121933428159E-03
DEBUG_STATS_RL: Uice pre  iter (SEAICE_LSR  1)  max=  2.19445684647109E-01
DEBUG_STATS_RL: Uice pre  iter (SEAICE_LSR  1) mean=  6.96639305502532E-02
DEBUG_STATS_RL: Uice pre  iter (SEAICE_LSR  1) S.D.=  7.25590715280224E-02
DEBUG_STATS_RL: Vice pre  iter (SEAICE_LSR  1)  min= -1.73112057819563E-01
DEBUG_STATS_RL: Vice pre  iter (SEAICE_LSR  1)  max=  1.05174802576008E-01
DEBUG_STATS_RL: Vice pre  iter (SEAICE_LSR  1) mean= -3.44957645455127E-02
DEBUG_STATS_RL: Vice pre  iter (SEAICE_LSR  1) S.D.=  5.17027322842165E-02
DEBUG_STATS_RL: Uice pre  iter (SEAICE_LSR  2)  min= -9.93295031152210E-03
DEBUG_STATS_RL: Uice pre  iter (SEAICE_LSR  2)  max=  2.37649472779152E-01
DEBUG_STATS_RL: Uice pre  iter (SEAICE_LSR  2) mean=  7.08960993522900E-02
DEBUG_STATS_RL: Uice pre  iter (SEAICE_LSR  2) S.D.=  7.51814019583860E-02
DEBUG_STATS_RL: Vice pre  iter (SEAICE_LSR  2)  min= -1.73458139241626E-01
DEBUG_STATS_RL: Vice pre  iter (SEAICE_LSR  2)  max=  1.02503634704982E-01
DEBUG_STATS_RL: Vice pre  iter (SEAICE_LSR  2) mean= -3.89801386768760E-02
DEBUG_STATS_RL: Vice pre  iter (SEAICE_LSR  2) S.D.=  5.44920749395038E-02
DEBUG_STATS_RL:                EtaN (DYNAMICS)  min= -1.29709672821213E-01
DEBUG_STATS_RL:                EtaN (DYNAMICS)  max=  3.25626876398477E-01
DEBUG_STATS_RL:                EtaN (DYNAMICS) mean= -3.00841690122536E-03
DEBUG_STATS_RL:                EtaN (DYNAMICS) S.D.=  7.54180814594036E-02
DEBUG_STATS_RL:                Uvel (DYNAMICS)  min= -3.64296443204224E-02
DEBUG_STATS_RL:                Uvel (DYNAMICS)  max=  8.91662112566489E-02
DEBUG_STATS_RL:                Uvel (DYNAMICS) mean=  5.18186102505262E-03
DEBUG_STATS_RL:                Uvel (DYNAMICS) S.D.=  1.36791834404111E-02
DEBUG_STATS_RL:                Vvel (DYNAMICS)  min= -8.48427067731397E-02
DEBUG_STATS_RL:                Vvel (DYNAMICS)  max=  7.15709637633448E-02
DEBUG_STATS_RL:                Vvel (DYNAMICS) mean= -6.25663991250223E-04
DEBUG_STATS_RL:                Vvel (DYNAMICS) S.D.=  1.65568599029307E-02
DEBUG_STATS_RL:                Wvel (DYNAMICS)  min= -2.02998023749463E-04
DEBUG_STATS_RL:                Wvel (DYNAMICS)  max=  3.07634744219620E-04
DEBUG_STATS_RL:                Wvel (DYNAMICS) mean= -2.14485636605179E-07
DEBUG_STATS_RL:                Wvel (DYNAMICS) S.D.=  2.56514188295233E-05
DEBUG_STATS_RL:               Theta (DYNAMICS)  min= -1.95891909892377E+00
DEBUG_STATS_RL:               Theta (DYNAMICS)  max=  1.32575107273067E+01
DEBUG_STATS_RL:               Theta (DYNAMICS) mean=  2.41560973729717E+00
DEBUG_STATS_RL:               Theta (DYNAMICS) S.D.=  2.57506629522921E+00
DEBUG_STATS_RL:                Salt (DYNAMICS)  min=  2.76241835718781E+01
DEBUG_STATS_RL:                Salt (DYNAMICS)  max=  3.54512322319690E+01
DEBUG_STATS_RL:                Salt (DYNAMICS) mean=  3.39367610972827E+01
DEBUG_STATS_RL:                Salt (DYNAMICS) S.D.=  1.15400523729775E+00
DEBUG_STATS_RL:                  Gu (DYNAMICS)  min= -3.40661284878781E-02
DEBUG_STATS_RL:                  Gu (DYNAMICS)  max=  1.09592409505601E-01
DEBUG_STATS_RL:                  Gu (DYNAMICS) mean=  3.43340148231612E-03
DEBUG_STATS_RL:                  Gu (DYNAMICS) S.D.=  1.52106643070904E-02
DEBUG_STATS_RL:                  Gv (DYNAMICS)  min= -1.19743996000496E-01
DEBUG_STATS_RL:                  Gv (DYNAMICS)  max=  5.31755908727337E-02
DEBUG_STATS_RL:                  Gv (DYNAMICS) mean= -6.43607759844673E-03
DEBUG_STATS_RL:                  Gv (DYNAMICS) S.D.=  1.74595586593132E-02
DEBUG_STATS_RL:               GuNm1 (DYNAMICS)  min= -2.94347299884301E-07
DEBUG_STATS_RL:               GuNm1 (DYNAMICS)  max=  1.78770581560375E-07
DEBUG_STATS_RL:               GuNm1 (DYNAMICS) mean= -3.06311171945198E-09
DEBUG_STATS_RL:               GuNm1 (DYNAMICS) S.D.=  4.19614199163276E-08
DEBUG_STATS_RL:               GvNm1 (DYNAMICS)  min= -1.82273635415880E-07
DEBUG_STATS_RL:               GvNm1 (DYNAMICS)  max=  1.24273330978528E-07
DEBUG_STATS_RL:               GvNm1 (DYNAMICS) mean= -1.05360009952046E-09
DEBUG_STATS_RL:               GvNm1 (DYNAMICS) S.D.=  3.58773704868012E-08
DEBUG_STATS_RL:               GtNm1 (DYNAMICS)  min=  0.00000000000000E+00
DEBUG_STATS_RL:               GtNm1 (DYNAMICS)  max=  0.00000000000000E+00
DEBUG_STATS_RL:               GtNm1 (DYNAMICS) mean=  0.00000000000000E+00
DEBUG_STATS_RL:               GtNm1 (DYNAMICS) S.D.=  0.00000000000000E+00
DEBUG_STATS_RL:               GsNm1 (DYNAMICS)  min=  0.00000000000000E+00
DEBUG_STATS_RL:               GsNm1 (DYNAMICS)  max=  0.00000000000000E+00
DEBUG_STATS_RL:               GsNm1 (DYNAMICS) mean=  0.00000000000000E+00
DEBUG_STATS_RL:               GsNm1 (DYNAMICS) S.D.=  0.00000000000000E+00
(PID.TID 0000.0001) SOLVE_FOR_PRESSURE: putPmEinXvector =    F
DEBUG_STATS_RL:    cg2d_b (SOLVE_FOR_PRESSURE)  min= -7.45833771571459E+03
DEBUG_STATS_RL:    cg2d_b (SOLVE_FOR_PRESSURE)  max=  2.17494903027769E+03
DEBUG_STATS_RL:    cg2d_b (SOLVE_FOR_PRESSURE) mean=  4.18935997004155E-13
DEBUG_STATS_RL:    cg2d_b (SOLVE_FOR_PRESSURE) S.D.=  9.06377010650268E+02
 cg2d: Sum(rhs),rhsMax =   8.29197821516914E-15  1.20041496847834E+00
DEBUG_STATS_RL:    cg2d_x (SOLVE_FOR_PRESSURE)  min= -1.23196163368130E+00
DEBUG_STATS_RL:    cg2d_x (SOLVE_FOR_PRESSURE)  max=  3.23727429689848E+00
DEBUG_STATS_RL:    cg2d_x (SOLVE_FOR_PRESSURE) mean= -3.45194761148230E-02
DEBUG_STATS_RL:    cg2d_x (SOLVE_FOR_PRESSURE) S.D.=  7.10912240392561E-01
DEBUG_STATS_RL:          Uvel (THERMODYNAMICS)  min= -3.59096386964102E-02
DEBUG_STATS_RL:          Uvel (THERMODYNAMICS)  max=  1.01288605318195E-01
DEBUG_STATS_RL:          Uvel (THERMODYNAMICS) mean=  5.06442107691443E-03
DEBUG_STATS_RL:          Uvel (THERMODYNAMICS) S.D.=  1.40087544095653E-02
DEBUG_STATS_RL:          Vvel (THERMODYNAMICS)  min= -1.10756263988798E-01
DEBUG_STATS_RL:          Vvel (THERMODYNAMICS)  max=  7.07208418107748E-02
DEBUG_STATS_RL:          Vvel (THERMODYNAMICS) mean= -2.17557054828444E-03
DEBUG_STATS_RL:          Vvel (THERMODYNAMICS) S.D.=  1.80912833066385E-02
DEBUG_STATS_RL:          Wvel (THERMODYNAMICS)  min= -2.43811460414301E-04
DEBUG_STATS_RL:          Wvel (THERMODYNAMICS)  max=  3.28816353261790E-04
DEBUG_STATS_RL:          Wvel (THERMODYNAMICS) mean= -1.37923543342930E-07
DEBUG_STATS_RL:          Wvel (THERMODYNAMICS) S.D.=  2.75149300864468E-05
DEBUG_STATS_RL:         Theta (THERMODYNAMICS)  min= -1.96015217723737E+00
DEBUG_STATS_RL:         Theta (THERMODYNAMICS)  max=  1.32512671183370E+01
DEBUG_STATS_RL:         Theta (THERMODYNAMICS) mean=  2.41531606071968E+00
DEBUG_STATS_RL:         Theta (THERMODYNAMICS) S.D.=  2.57483151675911E+00
DEBUG_STATS_RL:          Salt (THERMODYNAMICS)  min=  2.76290307531745E+01
DEBUG_STATS_RL:          Salt (THERMODYNAMICS)  max=  3.54512307060718E+01
DEBUG_STATS_RL:          Salt (THERMODYNAMICS) mean=  3.39367446276238E+01
DEBUG_STATS_RL:          Salt (THERMODYNAMICS) S.D.=  1.15382313156805E+00
DEBUG_STATS_RL:         GtNm1 (THERMODYNAMICS)  min=  0.00000000000000E+00
DEBUG_STATS_RL:         GtNm1 (THERMODYNAMICS)  max=  0.00000000000000E+00
DEBUG_STATS_RL:         GtNm1 (THERMODYNAMICS) mean=  0.00000000000000E+00
DEBUG_STATS_RL:         GtNm1 (THERMODYNAMICS) S.D.=  0.00000000000000E+00
DEBUG_STATS_RL:         GsNm1 (THERMODYNAMICS)  min=  0.00000000000000E+00
DEBUG_STATS_RL:         GsNm1 (THERMODYNAMICS)  max=  0.00000000000000E+00
DEBUG_STATS_RL:         GsNm1 (THERMODYNAMICS) mean=  0.00000000000000E+00
DEBUG_STATS_RL:         GsNm1 (THERMODYNAMICS) S.D.=  0.00000000000000E+00
(PID.TID 0000.0001)  MDS_WRITE_FIELD: it,rec,kS,kL,kH=       1     2   1   1   1 file=m_sst_step.0000000001
(PID.TID 0000.0001)  MDS_READ_FIELD: opening global file: xx_atemp.effective.0000000001.data
(PID.TID 0000.0001) EXF_SET_FLD: processing field "climsss",  file: SSS_monthly.labsea1979
(PID.TID 0000.0001) EXF_SET_FLD:   myIter, count0, count1:         6      1      2
(PID.TID 0000.0001) EXF_SET_FLD:   first, changed, fac:   F   F    0.49180327868852458
(PID.TID 0000.0001) EXF_SET_FLD: processing field "uwind",  file: u10m.labsea1979
(PID.TID 0000.0001) EXF_SET_FLD:   myIter, count0, count1:         6      1      2
(PID.TID 0000.0001) EXF_SET_FLD:   first, changed, fac:   F   F    0.49180327868852458
(PID.TID 0000.0001) EXF_SET_FLD: processing field "vwind",  file: v10m.labsea1979
(PID.TID 0000.0001) EXF_SET_FLD:   myIter, count0, count1:         6      1      2
(PID.TID 0000.0001) EXF_SET_FLD:   first, changed, fac:   F   F    0.49180327868852458
(PID.TID 0000.0001) EXF_SET_FLD: processing field "atemp",  file: tair.labsea1979
(PID.TID 0000.0001) EXF_SET_FLD:   myIter, count0, count1:         6      1      2
(PID.TID 0000.0001) EXF_SET_FLD:   first, changed, fac:   F   F    0.49180327868852458
(PID.TID 0000.0001) EXF_SET_FLD: processing field "aqh",  file: qa.labsea1979
(PID.TID 0000.0001) EXF_SET_FLD:   myIter, count0, count1:         6      1      2
(PID.TID 0000.0001) EXF_SET_FLD:   first, changed, fac:   F   F    0.49180327868852458
(PID.TID 0000.0001) EXF_SET_FLD: processing field "precip",  file: prate.labsea1979
(PID.TID 0000.0001) EXF_SET_FLD:   myIter, count0, count1:         6      1      2
(PID.TID 0000.0001) EXF_SET_FLD:   first, changed, fac:   F   F    0.49180327868852458
(PID.TID 0000.0001) EXF_SET_FLD: processing field "swdown",  file: fsh.labsea1979
(PID.TID 0000.0001) EXF_SET_FLD:   myIter, count0, count1:         6      1      2
(PID.TID 0000.0001) EXF_SET_FLD:   first, changed, fac:   F   F    0.49180327868852458
(PID.TID 0000.0001) EXF_SET_FLD: processing field "lwdown",  file: flo.labsea1979
(PID.TID 0000.0001) EXF_SET_FLD:   myIter, count0, count1:         6      1      2
(PID.TID 0000.0001) EXF_SET_FLD:   first, changed, fac:   F   F    0.49180327868852458
DEBUG_STATS_RL: Uice pre  iter (SEAICE_LSR  1)  min= -1.19106759196614E-02
DEBUG_STATS_RL: Uice pre  iter (SEAICE_LSR  1)  max=  2.40859973799500E-01
DEBUG_STATS_RL: Uice pre  iter (SEAICE_LSR  1) mean=  7.02597534860948E-02
DEBUG_STATS_RL: Uice pre  iter (SEAICE_LSR  1) S.D.=  7.57773428259753E-02
DEBUG_STATS_RL: Vice pre  iter (SEAICE_LSR  1)  min= -1.74132342678207E-01
DEBUG_STATS_RL: Vice pre  iter (SEAICE_LSR  1)  max=  9.66358613081399E-02
DEBUG_STATS_RL: Vice pre  iter (SEAICE_LSR  1) mean= -4.28491368242810E-02
DEBUG_STATS_RL: Vice pre  iter (SEAICE_LSR  1) S.D.=  5.63763392291550E-02
DEBUG_STATS_RL: Uice pre  iter (SEAICE_LSR  2)  min= -1.30564509125757E-02
DEBUG_STATS_RL: Uice pre  iter (SEAICE_LSR  2)  max=  2.47901039964918E-01
DEBUG_STATS_RL: Uice pre  iter (SEAICE_LSR  2) mean=  6.80717062410296E-02
DEBUG_STATS_RL: Uice pre  iter (SEAICE_LSR  2) S.D.=  7.48548542542582E-02
DEBUG_STATS_RL: Vice pre  iter (SEAICE_LSR  2)  min= -1.68314830999124E-01
DEBUG_STATS_RL: Vice pre  iter (SEAICE_LSR  2)  max=  8.87290074915900E-02
DEBUG_STATS_RL: Vice pre  iter (SEAICE_LSR  2) mean= -4.61137817409455E-02
DEBUG_STATS_RL: Vice pre  iter (SEAICE_LSR  2) S.D.=  5.74118961796309E-02
DEBUG_STATS_RL:                EtaN (DYNAMICS)  min= -1.25510578434462E-01
DEBUG_STATS_RL:                EtaN (DYNAMICS)  max=  3.29809109672203E-01
DEBUG_STATS_RL:                EtaN (DYNAMICS) mean= -3.51679735470302E-03
DEBUG_STATS_RL:                EtaN (DYNAMICS) S.D.=  7.24267737471536E-02
DEBUG_STATS_RL:                Uvel (DYNAMICS)  min= -3.59096386964102E-02
DEBUG_STATS_RL:                Uvel (DYNAMICS)  max=  1.01288605318195E-01
DEBUG_STATS_RL:                Uvel (DYNAMICS) mean=  5.06442107691443E-03
DEBUG_STATS_RL:                Uvel (DYNAMICS) S.D.=  1.40087544095653E-02
DEBUG_STATS_RL:                Vvel (DYNAMICS)  min= -1.10756263988798E-01
DEBUG_STATS_RL:                Vvel (DYNAMICS)  max=  7.07208418107748E-02
DEBUG_STATS_RL:                Vvel (DYNAMICS) mean= -2.17557054828444E-03
DEBUG_STATS_RL:                Vvel (DYNAMICS) S.D.=  1.80912833066385E-02
DEBUG_STATS_RL:                Wvel (DYNAMICS)  min= -2.43811460414301E-04
DEBUG_STATS_RL:                Wvel (DYNAMICS)  max=  3.28816353261790E-04
DEBUG_STATS_RL:                Wvel (DYNAMICS) mean= -1.37923543342930E-07
DEBUG_STATS_RL:                Wvel (DYNAMICS) S.D.=  2.75149300864468E-05
DEBUG_STATS_RL:               Theta (DYNAMICS)  min= -1.96015217723737E+00
DEBUG_STATS_RL:               Theta (DYNAMICS)  max=  1.32512671183370E+01
DEBUG_STATS_RL:               Theta (DYNAMICS) mean=  2.41531606071968E+00
DEBUG_STATS_RL:               Theta (DYNAMICS) S.D.=  2.57483151675911E+00
DEBUG_STATS_RL:                Salt (DYNAMICS)  min=  2.76290307531745E+01
DEBUG_STATS_RL:                Salt (DYNAMICS)  max=  3.54512307060718E+01
DEBUG_STATS_RL:                Salt (DYNAMICS) mean=  3.39367446276238E+01
DEBUG_STATS_RL:                Salt (DYNAMICS) S.D.=  1.15382313156805E+00
DEBUG_STATS_RL:                  Gu (DYNAMICS)  min= -4.45840116890899E-02
DEBUG_STATS_RL:                  Gu (DYNAMICS)  max=  1.13252404039500E-01
DEBUG_STATS_RL:                  Gu (DYNAMICS) mean=  3.02808241161229E-03
DEBUG_STATS_RL:                  Gu (DYNAMICS) S.D.=  1.59063121238893E-02
DEBUG_STATS_RL:                  Gv (DYNAMICS)  min= -1.34630447324912E-01
DEBUG_STATS_RL:                  Gv (DYNAMICS)  max=  4.81174890382835E-02
DEBUG_STATS_RL:                  Gv (DYNAMICS) mean= -7.41639241987065E-03
DEBUG_STATS_RL:                  Gv (DYNAMICS) S.D.=  1.85638365104700E-02
DEBUG_STATS_RL:               GuNm1 (DYNAMICS)  min= -3.33271036892904E-07
DEBUG_STATS_RL:               GuNm1 (DYNAMICS)  max=  1.87479663955270E-07
DEBUG_STATS_RL:               GuNm1 (DYNAMICS) mean= -3.31200046769952E-09
DEBUG_STATS_RL:               GuNm1 (DYNAMICS) S.D.=  4.08419141881971E-08
DEBUG_STATS_RL:               GvNm1 (DYNAMICS)  min= -2.04912919624491E-07
DEBUG_STATS_RL:               GvNm1 (DYNAMICS)  max=  1.56710147054438E-07
DEBUG_STATS_RL:               GvNm1 (DYNAMICS) mean= -8.96938696731291E-10
DEBUG_STATS_RL:               GvNm1 (DYNAMICS) S.D.=  3.95873164870957E-08
DEBUG_STATS_RL:               GtNm1 (DYNAMICS)  min=  0.00000000000000E+00
DEBUG_STATS_RL:               GtNm1 (DYNAMICS)  max=  0.00000000000000E+00
DEBUG_STATS_RL:               GtNm1 (DYNAMICS) mean=  0.00000000000000E+00
DEBUG_STATS_RL:               GtNm1 (DYNAMICS) S.D.=  0.00000000000000E+00
DEBUG_STATS_RL:               GsNm1 (DYNAMICS)  min=  0.00000000000000E+00
DEBUG_STATS_RL:               GsNm1 (DYNAMICS)  max=  0.00000000000000E+00
DEBUG_STATS_RL:               GsNm1 (DYNAMICS) mean=  0.00000000000000E+00
DEBUG_STATS_RL:               GsNm1 (DYNAMICS) S.D.=  0.00000000000000E+00
DEBUG_STATS_RL:    cg2d_b (SOLVE_FOR_PRESSURE)  min= -7.43169656861245E+03
DEBUG_STATS_RL:    cg2d_b (SOLVE_FOR_PRESSURE)  max=  2.17598296942634E+03
DEBUG_STATS_RL:    cg2d_b (SOLVE_FOR_PRESSURE) mean=  6.96331881044898E-13
DEBUG_STATS_RL:    cg2d_b (SOLVE_FOR_PRESSURE) S.D.=  9.02750100849735E+02
 cg2d: Sum(rhs),rhsMax =   1.41067713066434E-14  1.19612709187932E+00
DEBUG_STATS_RL:    cg2d_x (SOLVE_FOR_PRESSURE)  min= -1.18794061890904E+00
DEBUG_STATS_RL:    cg2d_x (SOLVE_FOR_PRESSURE)  max=  3.24511049575726E+00
DEBUG_STATS_RL:    cg2d_x (SOLVE_FOR_PRESSURE) mean= -3.88654400025836E-02
DEBUG_STATS_RL:    cg2d_x (SOLVE_FOR_PRESSURE) S.D.=  6.81167535252279E-01
DEBUG_STATS_RL:          Uvel (THERMODYNAMICS)  min= -3.57601727936033E-02
DEBUG_STATS_RL:          Uvel (THERMODYNAMICS)  max=  1.04775938290593E-01
DEBUG_STATS_RL:          Uvel (THERMODYNAMICS) mean=  4.39725630125182E-03
DEBUG_STATS_RL:          Uvel (THERMODYNAMICS) S.D.=  1.39028540310335E-02
DEBUG_STATS_RL:          Vvel (THERMODYNAMICS)  min= -1.27584762387762E-01
DEBUG_STATS_RL:          Vvel (THERMODYNAMICS)  max=  6.50083276838834E-02
DEBUG_STATS_RL:          Vvel (THERMODYNAMICS) mean= -3.36887217582008E-03
DEBUG_STATS_RL:          Vvel (THERMODYNAMICS) S.D.=  1.85890275650197E-02
DEBUG_STATS_RL:          Wvel (THERMODYNAMICS)  min= -2.67954696014334E-04
DEBUG_STATS_RL:          Wvel (THERMODYNAMICS)  max=  3.29804232734301E-04
DEBUG_STATS_RL:          Wvel (THERMODYNAMICS) mean= -4.85616750767614E-08
DEBUG_STATS_RL:          Wvel (THERMODYNAMICS) S.D.=  2.84164537902804E-05
DEBUG_STATS_RL:         Theta (THERMODYNAMICS)  min= -1.95963016104374E+00
DEBUG_STATS_RL:         Theta (THERMODYNAMICS)  max=  1.32396343409662E+01
DEBUG_STATS_RL:         Theta (THERMODYNAMICS) mean=  2.41506584132490E+00
DEBUG_STATS_RL:         Theta (THERMODYNAMICS) S.D.=  2.57443936967394E+00
DEBUG_STATS_RL:          Salt (THERMODYNAMICS)  min=  2.76338867569799E+01
DEBUG_STATS_RL:          Salt (THERMODYNAMICS)  max=  3.54511617149686E+01
DEBUG_STATS_RL:          Salt (THERMODYNAMICS) mean=  3.39367496241626E+01
DEBUG_STATS_RL:          Salt (THERMODYNAMICS) S.D.=  1.15359229307638E+00
DEBUG_STATS_RL:         GtNm1 (THERMODYNAMICS)  min=  0.00000000000000E+00
DEBUG_STATS_RL:         GtNm1 (THERMODYNAMICS)  max=  0.00000000000000E+00
DEBUG_STATS_RL:         GtNm1 (THERMODYNAMICS) mean=  0.00000000000000E+00
DEBUG_STATS_RL:         GtNm1 (THERMODYNAMICS) S.D.=  0.00000000000000E+00
DEBUG_STATS_RL:         GsNm1 (THERMODYNAMICS)  min=  0.00000000000000E+00
DEBUG_STATS_RL:         GsNm1 (THERMODYNAMICS)  max=  0.00000000000000E+00
DEBUG_STATS_RL:         GsNm1 (THERMODYNAMICS) mean=  0.00000000000000E+00
DEBUG_STATS_RL:         GsNm1 (THERMODYNAMICS) S.D.=  0.00000000000000E+00
(PID.TID 0000.0001)  MDS_WRITE_FIELD: it,rec,kS,kL,kH=       1     3   1   1   1 file=m_sst_step.0000000001
(PID.TID 0000.0001)  MDS_READ_FIELD: opening global file: xx_atemp.effective.0000000001.data
(PID.TID 0000.0001) EXF_SET_FLD: processing field "climsss",  file: SSS_monthly.labsea1979
(PID.TID 0000.0001) EXF_SET_FLD:   myIter, count0, count1:         7      1      2
(PID.TID 0000.0001) EXF_SET_FLD:   first, changed, fac:   F   F    0.49043715846994540
(PID.TID 0000.0001) EXF_SET_FLD: processing field "uwind",  file: u10m.labsea1979
(PID.TID 0000.0001) EXF_SET_FLD:   myIter, count0, count1:         7      1      2
(PID.TID 0000.0001) EXF_SET_FLD:   first, changed, fac:   F   F    0.49043715846994540
(PID.TID 0000.0001) EXF_SET_FLD: processing field "vwind",  file: v10m.labsea1979
(PID.TID 0000.0001) EXF_SET_FLD:   myIter, count0, count1:         7      1      2
(PID.TID 0000.0001) EXF_SET_FLD:   first, changed, fac:   F   F    0.49043715846994540
(PID.TID 0000.0001) EXF_SET_FLD: processing field "atemp",  file: tair.labsea1979
(PID.TID 0000.0001) EXF_SET_FLD:   myIter, count0, count1:         7      1      2
(PID.TID 0000.0001) EXF_SET_FLD:   first, changed, fac:   F   F    0.49043715846994540
(PID.TID 0000.0001) EXF_SET_FLD: processing field "aqh",  file: qa.labsea1979
(PID.TID 0000.0001) EXF_SET_FLD:   myIter, count0, count1:         7      1      2
(PID.TID 0000.0001) EXF_SET_FLD:   first, changed, fac:   F   F    0.49043715846994540
(PID.TID 0000.0001) EXF_SET_FLD: processing field "precip",  file: prate.labsea1979
(PID.TID 0000.0001) EXF_SET_FLD:   myIter, count0, count1:         7      1      2
(PID.TID 0000.0001) EXF_SET_FLD:   first, changed, fac:   F   F    0.49043715846994540
(PID.TID 0000.0001) EXF_SET_FLD: processing field "swdown",  file: fsh.labsea1979
(PID.TID 0000.0001) EXF_SET_FLD:   myIter, count0, count1:         7      1      2
(PID.TID 0000.0001) EXF_SET_FLD:   first, changed, fac:   F   F    0.49043715846994540
(PID.TID 0000.0001) EXF_SET_FLD: processing field "lwdown",  file: flo.labsea1979
(PID.TID 0000.0001) EXF_SET_FLD:   myIter, count0, count1:         7      1      2
(PID.TID 0000.0001) EXF_SET_FLD:   first, changed, fac:   F   F    0.49043715846994540
DEBUG_STATS_RL: Uice pre  iter (SEAICE_LSR  1)  min= -1.54549194525866E-02
DEBUG_STATS_RL: Uice pre  iter (SEAICE_LSR  1)  max=  2.53524286292195E-01
DEBUG_STATS_RL: Uice pre  iter (SEAICE_LSR  1) mean=  6.68799365320119E-02
DEBUG_STATS_RL: Uice pre  iter (SEAICE_LSR  1) S.D.=  7.54478852962580E-02
DEBUG_STATS_RL: Vice pre  iter (SEAICE_LSR  1)  min= -1.68373183021268E-01
DEBUG_STATS_RL: Vice pre  iter (SEAICE_LSR  1)  max=  8.10859368452303E-02
DEBUG_STATS_RL: Vice pre  iter (SEAICE_LSR  1) mean= -4.94905385200998E-02
DEBUG_STATS_RL: Vice pre  iter (SEAICE_LSR  1) S.D.=  5.89447951203408E-02
DEBUG_STATS_RL: Uice pre  iter (SEAICE_LSR  2)  min= -1.68104910559763E-02
DEBUG_STATS_RL: Uice pre  iter (SEAICE_LSR  2)  max=  2.51381266335640E-01
DEBUG_STATS_RL: Uice pre  iter (SEAICE_LSR  2) mean=  6.26056742417120E-02
DEBUG_STATS_RL: Uice pre  iter (SEAICE_LSR  2) S.D.=  7.23215228186589E-02
DEBUG_STATS_RL: Vice pre  iter (SEAICE_LSR  2)  min= -1.70146515867233E-01
DEBUG_STATS_RL: Vice pre  iter (SEAICE_LSR  2)  max=  7.01571636850258E-02
DEBUG_STATS_RL: Vice pre  iter (SEAICE_LSR  2) mean= -5.12009841743803E-02
DEBUG_STATS_RL: Vice pre  iter (SEAICE_LSR  2) S.D.=  5.84735965012139E-02
DEBUG_STATS_RL:                EtaN (DYNAMICS)  min= -1.21025777222894E-01
DEBUG_STATS_RL:                EtaN (DYNAMICS)  max=  3.30607450971643E-01
DEBUG_STATS_RL:                EtaN (DYNAMICS) mean= -3.95955825447081E-03
DEBUG_STATS_RL:                EtaN (DYNAMICS) S.D.=  6.93964235759688E-02
DEBUG_STATS_RL:                Uvel (DYNAMICS)  min= -3.57601727936033E-02
DEBUG_STATS_RL:                Uvel (DYNAMICS)  max=  1.04775938290593E-01
DEBUG_STATS_RL:                Uvel (DYNAMICS) mean=  4.39725630125182E-03
DEBUG_STATS_RL:                Uvel (DYNAMICS) S.D.=  1.39028540310335E-02
DEBUG_STATS_RL:                Vvel (DYNAMICS)  min= -1.27584762387762E-01
DEBUG_STATS_RL:                Vvel (DYNAMICS)  max=  6.50083276838834E-02
DEBUG_STATS_RL:                Vvel (DYNAMICS) mean= -3.36887217582008E-03
DEBUG_STATS_RL:                Vvel (DYNAMICS) S.D.=  1.85890275650197E-02
DEBUG_STATS_RL:                Wvel (DYNAMICS)  min= -2.67954696014334E-04
DEBUG_STATS_RL:                Wvel (DYNAMICS)  max=  3.29804232734301E-04
DEBUG_STATS_RL:                Wvel (DYNAMICS) mean= -4.85616750767614E-08
DEBUG_STATS_RL:                Wvel (DYNAMICS) S.D.=  2.84164537902804E-05
DEBUG_STATS_RL:               Theta (DYNAMICS)  min= -1.95963016104374E+00
DEBUG_STATS_RL:               Theta (DYNAMICS)  max=  1.32396343409662E+01
DEBUG_STATS_RL:               Theta (DYNAMICS) mean=  2.41506584132490E+00
DEBUG_STATS_RL:               Theta (DYNAMICS) S.D.=  2.57443936967394E+00
DEBUG_STATS_RL:                Salt (DYNAMICS)  min=  2.76338867569799E+01
DEBUG_STATS_RL:                Salt (DYNAMICS)  max=  3.54511617149686E+01
DEBUG_STATS_RL:                Salt (DYNAMICS) mean=  3.39367496241626E+01
DEBUG_STATS_RL:                Salt (DYNAMICS) S.D.=  1.15359229307638E+00
DEBUG_STATS_RL:                  Gu (DYNAMICS)  min= -5.18639383664093E-02
DEBUG_STATS_RL:                  Gu (DYNAMICS)  max=  1.08500044377568E-01
DEBUG_STATS_RL:                  Gu (DYNAMICS) mean=  2.22152146945400E-03
DEBUG_STATS_RL:                  Gu (DYNAMICS) S.D.=  1.62488741545267E-02
DEBUG_STATS_RL:                  Gv (DYNAMICS)  min= -1.40216393355448E-01
DEBUG_STATS_RL:                  Gv (DYNAMICS)  max=  4.07135165171732E-02
DEBUG_STATS_RL:                  Gv (DYNAMICS) mean= -7.84361289825861E-03
DEBUG_STATS_RL:                  Gv (DYNAMICS) S.D.=  1.86090017356288E-02
DEBUG_STATS_RL:               GuNm1 (DYNAMICS)  min= -3.48473911940034E-07
DEBUG_STATS_RL:               GuNm1 (DYNAMICS)  max=  1.90416017948021E-07
DEBUG_STATS_RL:               GuNm1 (DYNAMICS) mean= -3.12306477014106E-09
DEBUG_STATS_RL:               GuNm1 (DYNAMICS) S.D.=  4.09417632400134E-08
DEBUG_STATS_RL:               GvNm1 (DYNAMICS)  min= -2.15359173477236E-07
DEBUG_STATS_RL:               GvNm1 (DYNAMICS)  max=  1.82438063100004E-07
DEBUG_STATS_RL:               GvNm1 (DYNAMICS) mean= -6.53519601921780E-10
DEBUG_STATS_RL:               GvNm1 (DYNAMICS) S.D.=  4.16452354556348E-08
DEBUG_STATS_RL:               GtNm1 (DYNAMICS)  min=  0.00000000000000E+00
DEBUG_STATS_RL:               GtNm1 (DYNAMICS)  max=  0.00000000000000E+00
DEBUG_STATS_RL:               GtNm1 (DYNAMICS) mean=  0.00000000000000E+00
DEBUG_STATS_RL:               GtNm1 (DYNAMICS) S.D.=  0.00000000000000E+00
DEBUG_STATS_RL:               GsNm1 (DYNAMICS)  min=  0.00000000000000E+00
DEBUG_STATS_RL:               GsNm1 (DYNAMICS)  max=  0.00000000000000E+00
DEBUG_STATS_RL:               GsNm1 (DYNAMICS) mean=  0.00000000000000E+00
DEBUG_STATS_RL:               GsNm1 (DYNAMICS) S.D.=  0.00000000000000E+00
DEBUG_STATS_RL:    cg2d_b (SOLVE_FOR_PRESSURE)  min= -7.37985604508148E+03
DEBUG_STATS_RL:    cg2d_b (SOLVE_FOR_PRESSURE)  max=  2.18366607280435E+03
DEBUG_STATS_RL:    cg2d_b (SOLVE_FOR_PRESSURE) mean=  6.18645875268461E-13
DEBUG_STATS_RL:    cg2d_b (SOLVE_FOR_PRESSURE) S.D.=  8.98963545839594E+02
 cg2d: Sum(rhs),rhsMax =   1.34267597040605E-14  1.18778339080378E+00
DEBUG_STATS_RL:    cg2d_x (SOLVE_FOR_PRESSURE)  min= -1.13929441834640E+00
DEBUG_STATS_RL:    cg2d_x (SOLVE_FOR_PRESSURE)  max=  3.20616731162253E+00
DEBUG_STATS_RL:    cg2d_x (SOLVE_FOR_PRESSURE) mean= -4.15672442271453E-02
DEBUG_STATS_RL:    cg2d_x (SOLVE_FOR_PRESSURE) S.D.=  6.51074617232215E-01
DEBUG_STATS_RL:          Uvel (THERMODYNAMICS)  min= -4.34802359621465E-02
DEBUG_STATS_RL:          Uvel (THERMODYNAMICS)  max=  9.99752242998808E-02
DEBUG_STATS_RL:          Uvel (THERMODYNAMICS) mean=  3.48264152589957E-03
DEBUG_STATS_RL:          Uvel (THERMODYNAMICS) S.D.=  1.35343125506116E-02
DEBUG_STATS_RL:          Vvel (THERMODYNAMICS)  min= -1.33439207289254E-01
DEBUG_STATS_RL:          Vvel (THERMODYNAMICS)  max=  5.60260700766945E-02
DEBUG_STATS_RL:          Vvel (THERMODYNAMICS) mean= -4.02696574872961E-03
DEBUG_STATS_RL:          Vvel (THERMODYNAMICS) S.D.=  1.80273334212797E-02
DEBUG_STATS_RL:          Wvel (THERMODYNAMICS)  min= -2.73348162229354E-04
DEBUG_STATS_RL:          Wvel (THERMODYNAMICS)  max=  3.13596923283671E-04
DEBUG_STATS_RL:          Wvel (THERMODYNAMICS) mean=  4.73709411313520E-08
DEBUG_STATS_RL:          Wvel (THERMODYNAMICS) S.D.=  2.82661454219204E-05
DEBUG_STATS_RL:         Theta (THERMODYNAMICS)  min= -1.95943609422387E+00
DEBUG_STATS_RL:         Theta (THERMODYNAMICS)  max=  1.32225113409295E+01
DEBUG_STATS_RL:         Theta (THERMODYNAMICS) mean=  2.41480286619418E+00
DEBUG_STATS_RL:         Theta (THERMODYNAMICS) S.D.=  2.57398860030337E+00
DEBUG_STATS_RL:          Salt (THERMODYNAMICS)  min=  2.76387468555707E+01
DEBUG_STATS_RL:          Salt (THERMODYNAMICS)  max=  3.54510358217953E+01
DEBUG_STATS_RL:          Salt (THERMODYNAMICS) mean=  3.39367601804946E+01
DEBUG_STATS_RL:          Salt (THERMODYNAMICS) S.D.=  1.15334890349729E+00
DEBUG_STATS_RL:         GtNm1 (THERMODYNAMICS)  min=  0.00000000000000E+00
DEBUG_STATS_RL:         GtNm1 (THERMODYNAMICS)  max=  0.00000000000000E+00
DEBUG_STATS_RL:         GtNm1 (THERMODYNAMICS) mean=  0.00000000000000E+00
DEBUG_STATS_RL:         GtNm1 (THERMODYNAMICS) S.D.=  0.00000000000000E+00
DEBUG_STATS_RL:         GsNm1 (THERMODYNAMICS)  min=  0.00000000000000E+00
DEBUG_STATS_RL:         GsNm1 (THERMODYNAMICS)  max=  0.00000000000000E+00
DEBUG_STATS_RL:         GsNm1 (THERMODYNAMICS) mean=  0.00000000000000E+00
DEBUG_STATS_RL:         GsNm1 (THERMODYNAMICS) S.D.=  0.00000000000000E+00
(PID.TID 0000.0001)  MDS_WRITE_FIELD: it,rec,kS,kL,kH=       1     4   1   1   1 file=m_sst_step.0000000001
(PID.TID 0000.0001)  MDS_READ_FIELD: opening global file: xx_atemp.effective.0000000001.data
(PID.TID 0000.0001) EXF_SET_FLD: processing field "climsss",  file: SSS_monthly.labsea1979
(PID.TID 0000.0001) EXF_SET_FLD:   myIter, count0, count1:         8      1      2
(PID.TID 0000.0001) EXF_SET_FLD:   first, changed, fac:   F   F    0.48907103825136611
(PID.TID 0000.0001) EXF_SET_FLD: processing field "uwind",  file: u10m.labsea1979
(PID.TID 0000.0001) EXF_SET_FLD:   myIter, count0, count1:         8      1      2
(PID.TID 0000.0001) EXF_SET_FLD:   first, changed, fac:   F   F    0.48907103825136611
(PID.TID 0000.0001) EXF_SET_FLD: processing field "vwind",  file: v10m.labsea1979
(PID.TID 0000.0001) EXF_SET_FLD:   myIter, count0, count1:         8      1      2
(PID.TID 0000.0001) EXF_SET_FLD:   first, changed, fac:   F   F    0.48907103825136611
(PID.TID 0000.0001) EXF_SET_FLD: processing field "atemp",  file: tair.labsea1979
(PID.TID 0000.0001) EXF_SET_FLD:   myIter, count0, count1:         8      1      2
(PID.TID 0000.0001) EXF_SET_FLD:   first, changed, fac:   F   F    0.48907103825136611
(PID.TID 0000.0001) EXF_SET_FLD: processing field "aqh",  file: qa.labsea1979
(PID.TID 0000.0001) EXF_SET_FLD:   myIter, count0, count1:         8      1      2
(PID.TID 0000.0001) EXF_SET_FLD:   first, changed, fac:   F   F    0.48907103825136611
(PID.TID 0000.0001) EXF_SET_FLD: processing field "precip",  file: prate.labsea1979
(PID.TID 0000.0001) EXF_SET_FLD:   myIter, count0, count1:         8      1      2
(PID.TID 0000.0001) EXF_SET_FLD:   first, changed, fac:   F   F    0.48907103825136611
(PID.TID 0000.0001) EXF_SET_FLD: processing field "swdown",  file: fsh.labsea1979
(PID.TID 0000.0001) EXF_SET_FLD:   myIter, count0, count1:         8      1      2
(PID.TID 0000.0001) EXF_SET_FLD:   first, changed, fac:   F   F    0.48907103825136611
(PID.TID 0000.0001) EXF_SET_FLD: processing field "lwdown",  file: flo.labsea1979
(PID.TID 0000.0001) EXF_SET_FLD:   myIter, count0, count1:         8      1      2
(PID.TID 0000.0001) EXF_SET_FLD:   first, changed, fac:   F   F    0.48907103825136611
DEBUG_STATS_RL: Uice pre  iter (SEAICE_LSR  1)  min= -1.95687208100102E-02
DEBUG_STATS_RL: Uice pre  iter (SEAICE_LSR  1)  max=  2.56695252608154E-01
DEBUG_STATS_RL: Uice pre  iter (SEAICE_LSR  1) mean=  6.10102626008752E-02
DEBUG_STATS_RL: Uice pre  iter (SEAICE_LSR  1) S.D.=  7.26515133443026E-02
DEBUG_STATS_RL: Vice pre  iter (SEAICE_LSR  1)  min= -1.74351841639993E-01
DEBUG_STATS_RL: Vice pre  iter (SEAICE_LSR  1)  max=  6.17815719868620E-02
DEBUG_STATS_RL: Vice pre  iter (SEAICE_LSR  1) mean= -5.34332922103127E-02
DEBUG_STATS_RL: Vice pre  iter (SEAICE_LSR  1) S.D.=  5.91879685811095E-02
DEBUG_STATS_RL: Uice pre  iter (SEAICE_LSR  2)  min= -2.10631196463131E-02
DEBUG_STATS_RL: Uice pre  iter (SEAICE_LSR  2)  max=  2.47741110498678E-01
DEBUG_STATS_RL: Uice pre  iter (SEAICE_LSR  2) mean=  5.58563099525574E-02
DEBUG_STATS_RL: Uice pre  iter (SEAICE_LSR  2) S.D.=  6.83562873807025E-02
DEBUG_STATS_RL: Vice pre  iter (SEAICE_LSR  2)  min= -1.71270231909308E-01
DEBUG_STATS_RL: Vice pre  iter (SEAICE_LSR  2)  max=  5.00408736690829E-02
DEBUG_STATS_RL: Vice pre  iter (SEAICE_LSR  2) mean= -5.35471708937630E-02
DEBUG_STATS_RL: Vice pre  iter (SEAICE_LSR  2) S.D.=  5.75117440524867E-02
DEBUG_STATS_RL:                EtaN (DYNAMICS)  min= -1.16069768363258E-01
DEBUG_STATS_RL:                EtaN (DYNAMICS)  max=  3.26639972250553E-01
DEBUG_STATS_RL:                EtaN (DYNAMICS) mean= -4.23481440025525E-03
DEBUG_STATS_RL:                EtaN (DYNAMICS) S.D.=  6.63305979494085E-02
DEBUG_STATS_RL:                Uvel (DYNAMICS)  min= -4.34802359621465E-02
DEBUG_STATS_RL:                Uvel (DYNAMICS)  max=  9.99752242998808E-02
DEBUG_STATS_RL:                Uvel (DYNAMICS) mean=  3.48264152589957E-03
DEBUG_STATS_RL:                Uvel (DYNAMICS) S.D.=  1.35343125506116E-02
DEBUG_STATS_RL:                Vvel (DYNAMICS)  min= -1.33439207289254E-01
DEBUG_STATS_RL:                Vvel (DYNAMICS)  max=  5.60260700766945E-02
DEBUG_STATS_RL:                Vvel (DYNAMICS) mean= -4.02696574872961E-03
DEBUG_STATS_RL:                Vvel (DYNAMICS) S.D.=  1.80273334212797E-02
DEBUG_STATS_RL:                Wvel (DYNAMICS)  min= -2.73348162229354E-04
DEBUG_STATS_RL:                Wvel (DYNAMICS)  max=  3.13596923283671E-04
DEBUG_STATS_RL:                Wvel (DYNAMICS) mean=  4.73709411313520E-08
DEBUG_STATS_RL:                Wvel (DYNAMICS) S.D.=  2.82661454219204E-05
DEBUG_STATS_RL:               Theta (DYNAMICS)  min= -1.95943609422387E+00
DEBUG_STATS_RL:               Theta (DYNAMICS)  max=  1.32225113409295E+01
DEBUG_STATS_RL:               Theta (DYNAMICS) mean=  2.41480286619418E+00
DEBUG_STATS_RL:               Theta (DYNAMICS) S.D.=  2.57398860030337E+00
DEBUG_STATS_RL:                Salt (DYNAMICS)  min=  2.76387468555707E+01
DEBUG_STATS_RL:                Salt (DYNAMICS)  max=  3.54510358217953E+01
DEBUG_STATS_RL:                Salt (DYNAMICS) mean=  3.39367601804946E+01
DEBUG_STATS_RL:                Salt (DYNAMICS) S.D.=  1.15334890349729E+00
DEBUG_STATS_RL:                  Gu (DYNAMICS)  min= -5.98368153074020E-02
DEBUG_STATS_RL:                  Gu (DYNAMICS)  max=  9.68873121299251E-02
DEBUG_STATS_RL:                  Gu (DYNAMICS) mean=  1.30194972947503E-03
DEBUG_STATS_RL:                  Gu (DYNAMICS) S.D.=  1.61566615235326E-02
DEBUG_STATS_RL:                  Gv (DYNAMICS)  min= -1.36271217267994E-01
DEBUG_STATS_RL:                  Gv (DYNAMICS)  max=  3.83573237348583E-02
DEBUG_STATS_RL:                  Gv (DYNAMICS) mean= -7.71950831958569E-03
DEBUG_STATS_RL:                  Gv (DYNAMICS) S.D.=  1.77533563667874E-02
DEBUG_STATS_RL:               GuNm1 (DYNAMICS)  min= -3.40955168137046E-07
DEBUG_STATS_RL:               GuNm1 (DYNAMICS)  max=  1.82641400821284E-07
DEBUG_STATS_RL:               GuNm1 (DYNAMICS) mean= -2.79196714442664E-09
DEBUG_STATS_RL:               GuNm1 (DYNAMICS) S.D.=  4.07453533304239E-08
DEBUG_STATS_RL:               GvNm1 (DYNAMICS)  min= -2.14559263714299E-07
DEBUG_STATS_RL:               GvNm1 (DYNAMICS)  max=  1.94148824775153E-07
DEBUG_STATS_RL:               GvNm1 (DYNAMICS) mean= -4.04169206802268E-10
DEBUG_STATS_RL:               GvNm1 (DYNAMICS) S.D.=  4.19222729579498E-08
DEBUG_STATS_RL:               GtNm1 (DYNAMICS)  min=  0.00000000000000E+00
DEBUG_STATS_RL:               GtNm1 (DYNAMICS)  max=  0.00000000000000E+00
DEBUG_STATS_RL:               GtNm1 (DYNAMICS) mean=  0.00000000000000E+00
DEBUG_STATS_RL:               GtNm1 (DYNAMICS) S.D.=  0.00000000000000E+00
DEBUG_STATS_RL:               GsNm1 (DYNAMICS)  min=  0.00000000000000E+00
DEBUG_STATS_RL:               GsNm1 (DYNAMICS)  max=  0.00000000000000E+00
DEBUG_STATS_RL:               GsNm1 (DYNAMICS) mean=  0.00000000000000E+00
DEBUG_STATS_RL:               GsNm1 (DYNAMICS) S.D.=  0.00000000000000E+00
DEBUG_STATS_RL:    cg2d_b (SOLVE_FOR_PRESSURE)  min= -7.29975929937793E+03
DEBUG_STATS_RL:    cg2d_b (SOLVE_FOR_PRESSURE)  max=  2.19478299507054E+03
DEBUG_STATS_RL:    cg2d_b (SOLVE_FOR_PRESSURE) mean= -3.96767063648440E-13
DEBUG_STATS_RL:    cg2d_b (SOLVE_FOR_PRESSURE) S.D.=  8.94146290227710E+02
 cg2d: Sum(rhs),rhsMax =  -6.92501611609941E-15  1.17489186776824E+00
DEBUG_STATS_RL:    cg2d_x (SOLVE_FOR_PRESSURE)  min= -1.08771127617308E+00
DEBUG_STATS_RL:    cg2d_x (SOLVE_FOR_PRESSURE)  max=  3.12128519797376E+00
DEBUG_STATS_RL:    cg2d_x (SOLVE_FOR_PRESSURE) mean= -4.19588396852395E-02
DEBUG_STATS_RL:    cg2d_x (SOLVE_FOR_PRESSURE) S.D.=  6.20262122262901E-01
DEBUG_STATS_RL:          Uvel (THERMODYNAMICS)  min= -5.12375198242059E-02
DEBUG_STATS_RL:          Uvel (THERMODYNAMICS)  max=  8.84896388076339E-02
DEBUG_STATS_RL:          Uvel (THERMODYNAMICS) mean=  2.55769138538291E-03
DEBUG_STATS_RL:          Uvel (THERMODYNAMICS) S.D.=  1.29064693910456E-02
DEBUG_STATS_RL:          Vvel (THERMODYNAMICS)  min= -1.29344604199479E-01
DEBUG_STATS_RL:          Vvel (THERMODYNAMICS)  max=  4.58633296186249E-02
DEBUG_STATS_RL:          Vvel (THERMODYNAMICS) mean= -4.14107843006319E-03
DEBUG_STATS_RL:          Vvel (THERMODYNAMICS) S.D.=  1.66082836245794E-02
DEBUG_STATS_RL:          Wvel (THERMODYNAMICS)  min= -2.60848991809587E-04
DEBUG_STATS_RL:          Wvel (THERMODYNAMICS)  max=  2.85731299794369E-04
DEBUG_STATS_RL:          Wvel (THERMODYNAMICS) mean=  1.36793666178293E-07
DEBUG_STATS_RL:          Wvel (THERMODYNAMICS) S.D.=  2.70580054557619E-05
DEBUG_STATS_RL:         Theta (THERMODYNAMICS)  min= -1.95932886747261E+00
DEBUG_STATS_RL:         Theta (THERMODYNAMICS)  max=  1.32010303660582E+01
DEBUG_STATS_RL:         Theta (THERMODYNAMICS) mean=  2.41452315045422E+00
DEBUG_STATS_RL:         Theta (THERMODYNAMICS) S.D.=  2.57350774067654E+00
DEBUG_STATS_RL:          Salt (THERMODYNAMICS)  min=  2.76435505129419E+01
DEBUG_STATS_RL:          Salt (THERMODYNAMICS)  max=  3.54508660670958E+01
DEBUG_STATS_RL:          Salt (THERMODYNAMICS) mean=  3.39367749828872E+01
DEBUG_STATS_RL:          Salt (THERMODYNAMICS) S.D.=  1.15309738582237E+00
DEBUG_STATS_RL:         GtNm1 (THERMODYNAMICS)  min=  0.00000000000000E+00
DEBUG_STATS_RL:         GtNm1 (THERMODYNAMICS)  max=  0.00000000000000E+00
DEBUG_STATS_RL:         GtNm1 (THERMODYNAMICS) mean=  0.00000000000000E+00
DEBUG_STATS_RL:         GtNm1 (THERMODYNAMICS) S.D.=  0.00000000000000E+00
DEBUG_STATS_RL:         GsNm1 (THERMODYNAMICS)  min=  0.00000000000000E+00
DEBUG_STATS_RL:         GsNm1 (THERMODYNAMICS)  max=  0.00000000000000E+00
DEBUG_STATS_RL:         GsNm1 (THERMODYNAMICS) mean=  0.00000000000000E+00
DEBUG_STATS_RL:         GsNm1 (THERMODYNAMICS) S.D.=  0.00000000000000E+00
(PID.TID 0000.0001) Did not write pickup because writePickupAtEnd = FALSE
(PID.TID 0000.0001)  MDS_WRITE_FIELD: it,rec,kS,kL,kH=       1     5   1   1   1 file=m_sst_step.0000000001
(PID.TID 0000.0001) gencost # 03
(PID.TID 0000.0001)  MDS_READ_FIELD: opening global file: sigma_sst.bin
(PID.TID 0000.0001)  MDS_READ_FIELD: opening global file: m_sst_step.0000000001.data
(PID.TID 0000.0001)  MDS_READ_FIELD: opening global file: labsea_SST_fields_t5
(PID.TID 0000.0001)  MDS_WRITE_FIELD: it,rec,kS,kL,kH=       1     1   1   1   1 file=misfit_sst
(PID.TID 0000.0001)  MDS_READ_FIELD: opening global file: sigma_sst.bin
(PID.TID 0000.0001)  MDS_READ_FIELD: opening global file: m_sst_step.0000000001.data
(PID.TID 0000.0001)  MDS_READ_FIELD: opening global file: labsea_SST_fields_t5
(PID.TID 0000.0001)  MDS_WRITE_FIELD: it,rec,kS,kL,kH=       1     2   1   1   1 file=misfit_sst
(PID.TID 0000.0001)  MDS_READ_FIELD: opening global file: sigma_sst.bin
(PID.TID 0000.0001)  MDS_READ_FIELD: opening global file: m_sst_step.0000000001.data
(PID.TID 0000.0001)  MDS_READ_FIELD: opening global file: labsea_SST_fields_t5
(PID.TID 0000.0001)  MDS_WRITE_FIELD: it,rec,kS,kL,kH=       1     3   1   1   1 file=misfit_sst
(PID.TID 0000.0001)  MDS_READ_FIELD: opening global file: sigma_sst.bin
(PID.TID 0000.0001)  MDS_READ_FIELD: opening global file: m_sst_step.0000000001.data
(PID.TID 0000.0001)  MDS_READ_FIELD: opening global file: labsea_SST_fields_t5
(PID.TID 0000.0001)  MDS_WRITE_FIELD: it,rec,kS,kL,kH=       1     4   1   1   1 file=misfit_sst
(PID.TID 0000.0001)  MDS_READ_FIELD: opening global file: sigma_sst.bin
(PID.TID 0000.0001)  MDS_READ_FIELD: opening global file: m_sst_step.0000000001.data
(PID.TID 0000.0001)  MDS_READ_FIELD: opening global file: labsea_SST_fields_t5
(PID.TID 0000.0001)  MDS_WRITE_FIELD: it,rec,kS,kL,kH=       1     5   1   1   1 file=misfit_sst
(PID.TID 0000.0001)  MDS_READ_FIELD: opening global file: xx_atemp.0000000001.data
(PID.TID 0000.0001)  MDS_READ_FIELD: opening global file: xx_atemp.0000000001.data
(PID.TID 0000.0001)  MDS_READ_FIELD: opening global file: xx_atemp.0000000001.data
(PID.TID 0000.0001)  MDS_READ_FIELD: opening global file: xx_atemp.0000000001.data
(PID.TID 0000.0001)  MDS_READ_FIELD: opening global file: xx_atemp.0000000001.data
(PID.TID 0000.0001)  MDS_READ_FIELD: opening global file: xx_atemp.0000000001.data
(PID.TID 0000.0001)  MDS_READ_FIELD: opening global file: xx_atemp.0000000001.data
(PID.TID 0000.0001)  MDS_READ_FIELD: opening global file: xx_atemp.0000000001.data
(PID.TID 0000.0001)  MDS_READ_FIELD: opening global file: xx_atemp.0000000001.data
(PID.TID 0000.0001)  MDS_READ_FIELD: opening global file: xx_atemp.0000000001.data
(PID.TID 0000.0001)  MDS_READ_FIELD: opening global file: xx_atemp.0000000001.data
 --> f_ice     = 0.000000000000000D+00
 --> f_smrarea = 0.000000000000000D+00
 --> f_smrarea = 0.000000000000000D+00
 --> f_smrarea = 0.000000000000000D+00
(PID.TID 0000.0001)  --> f_gencost = 0.527453128215446D+04 3
(PID.TID 0000.0001)  --> f_gentim2d = 0.243375020010000D+03 1
(PID.TID 0000.0001)  --> fc               = 0.527453128215446D+04
(PID.TID 0000.0001)  cost_Final: final cost function =  0.527453128215446D+04
(PID.TID 0000.0001) 
(PID.TID 0000.0001)              cost function evaluation finished.
(PID.TID 0000.0001) 
(PID.TID 0000.0001)   early fc =  0.000000000000000D+00
(PID.TID 0000.0001)   local fc =  0.527453128215446D+04
(PID.TID 0000.0001)  global fc =  0.527453128215446D+04
(PID.TID 0000.0001) grdchk perturb(+)fc: fcpertplus  =  5.27453128215446E+03
(PID.TID 0000.0001)  MDS_READ_FIELD: opening global file: xx_atemp.0000000001.data
(PID.TID 0000.0001)  MDS_WRITE_FIELD: it,rec,kS,kL,kH=       1     1   1   1   1 file=xx_atemp.0000000001
(PID.TID 0000.0001)  MDS_READ_FIELD: opening global file: xx_atemp.0000000001.data
(PID.TID 0000.0001)  MDS_WRITE_FIELD: it,rec,kS,kL,kH=       1     1   1   1   1 file=xx_atemp.0000000001
(PID.TID 0000.0001)  MDS_READ_META: opening file: pickup.0000000005.meta
(PID.TID 0000.0001)  nRecords = 141 ; filePrec =  64 ; fileIter =         5
(PID.TID 0000.0001)     nDims =   2 , dims:
(PID.TID 0000.0001)    1:  20   1  20
(PID.TID 0000.0001)    2:  16   1  16
(PID.TID 0000.0001)     nFlds =   9 , nFl3D =   6 , fields:
(PID.TID 0000.0001)  >Uvel    < >Vvel    < >Theta   < >Salt    < >GuNm1   < >GvNm1   < >EtaN    < >dEtaHdt < >EtaH    <
(PID.TID 0000.0001) missingVal=  1.00000000000000E+00 ; nTimRec =   1 , timeList:
(PID.TID 0000.0001)   1.800000000000E+04
(PID.TID 0000.0001) READ_MFLDS_3D_RL: read field: "Uvel    ", #   1 in fldList, rec=   1
(PID.TID 0000.0001)  MDS_READ_FIELD: opening global file: pickup.0000000005.data
(PID.TID 0000.0001) READ_MFLDS_3D_RL: read field: "Vvel    ", #   2 in fldList, rec=   2
(PID.TID 0000.0001)  MDS_READ_FIELD: opening global file: pickup.0000000005.data
(PID.TID 0000.0001) READ_MFLDS_3D_RL: read field: "Theta   ", #   3 in fldList, rec=   3
(PID.TID 0000.0001)  MDS_READ_FIELD: opening global file: pickup.0000000005.data
(PID.TID 0000.0001) READ_MFLDS_3D_RL: read field: "Salt    ", #   4 in fldList, rec=   4
(PID.TID 0000.0001)  MDS_READ_FIELD: opening global file: pickup.0000000005.data
(PID.TID 0000.0001) READ_MFLDS_3D_RL: read field: "GuNm1   ", #   5 in fldList, rec=   5
(PID.TID 0000.0001)  MDS_READ_FIELD: opening global file: pickup.0000000005.data
(PID.TID 0000.0001) READ_MFLDS_3D_RL: read field: "GvNm1   ", #   6 in fldList, rec=   6
(PID.TID 0000.0001)  MDS_READ_FIELD: opening global file: pickup.0000000005.data
(PID.TID 0000.0001) READ_MFLDS_3D_RL: read field: "EtaN    ", #   7 in fldList, rec= 139
(PID.TID 0000.0001)  MDS_READ_FIELD: opening global file: pickup.0000000005.data
(PID.TID 0000.0001) READ_MFLDS_CHECK: - normal end ; reset MFLDS file-name: pickup.0000000005
(PID.TID 0000.0001)  MDS_READ_FIELD: opening global file: pickup_cd.0000000005.data
(PID.TID 0000.0001)  MDS_READ_FIELD: opening global file: pickup_cd.0000000005.data
(PID.TID 0000.0001)  MDS_READ_FIELD: opening global file: pickup_cd.0000000005.data
(PID.TID 0000.0001)  MDS_READ_FIELD: opening global file: pickup_cd.0000000005.data
(PID.TID 0000.0001)  MDS_READ_FIELD: opening global file: pickup_cd.0000000005.data
(PID.TID 0000.0001)  MDS_READ_META: opening file: pickup_seaice.0000000005.meta
(PID.TID 0000.0001)  nRecords =  13 ; filePrec =  64 ; fileIter =         5
(PID.TID 0000.0001)     nDims =   2 , dims:
(PID.TID 0000.0001)    1:  20   1  20
(PID.TID 0000.0001)    2:  16   1  16
(PID.TID 0000.0001)     nFlds =   7 , nFl3D =   1 , fields:
(PID.TID 0000.0001)  >siTICES < >siAREA  < >siHEFF  < >siHSNOW < >siHSALT < >siUICE  < >siVICE  <
(PID.TID 0000.0001) missingVal=  1.00000000000000E+00 ; nTimRec =   1 , timeList:
(PID.TID 0000.0001)   1.800000000000E+04
(PID.TID 0000.0001) READ_MFLDS_3D_RL: read field: "siTICES ", #   1 in fldList, rec=   1
(PID.TID 0000.0001)  MDS_READ_FIELD: opening global file: pickup_seaice.0000000005.data
(PID.TID 0000.0001) READ_MFLDS_3D_RL: read field: "siAREA  ", #   2 in fldList, rec=   8
(PID.TID 0000.0001)  MDS_READ_FIELD: opening global file: pickup_seaice.0000000005.data
(PID.TID 0000.0001) READ_MFLDS_3D_RL: read field: "siHEFF  ", #   3 in fldList, rec=   9
(PID.TID 0000.0001)  MDS_READ_FIELD: opening global file: pickup_seaice.0000000005.data
(PID.TID 0000.0001) READ_MFLDS_3D_RL: read field: "siHSNOW ", #   4 in fldList, rec=  10
(PID.TID 0000.0001)  MDS_READ_FIELD: opening global file: pickup_seaice.0000000005.data
(PID.TID 0000.0001) READ_MFLDS_3D_RL: read field: "siHSALT ", #   5 in fldList, rec=  11
(PID.TID 0000.0001)  MDS_READ_FIELD: opening global file: pickup_seaice.0000000005.data
(PID.TID 0000.0001) READ_MFLDS_3D_RL: read field: "siUICE  ", #   6 in fldList, rec=  12
(PID.TID 0000.0001)  MDS_READ_FIELD: opening global file: pickup_seaice.0000000005.data
(PID.TID 0000.0001) READ_MFLDS_3D_RL: read field: "siVICE  ", #   7 in fldList, rec=  13
(PID.TID 0000.0001)  MDS_READ_FIELD: opening global file: pickup_seaice.0000000005.data
(PID.TID 0000.0001) READ_MFLDS_CHECK: - normal end ; reset MFLDS file-name: pickup_seaice.0000000005
(PID.TID 0000.0001) CTRL_INIT_REC: Getting record indices for xx_atemp
(PID.TID 0000.0001) CTRL_INIT_REC: Record indices for xx_atemp:
(PID.TID 0000.0001) CTRL_INIT_REC: startrec =          6, endrec =         11
(PID.TID 0000.0001)  MDS_READ_FIELD: opening global file: xx_atemp.0000000001.data
(PID.TID 0000.0001)  MDS_WRITE_FIELD: it,rec,kS,kL,kH=       1     1   1   1   1 file=xx_atemp.effective.0000000001
(PID.TID 0000.0001)  MDS_READ_FIELD: opening global file: xx_atemp.0000000001.data
(PID.TID 0000.0001)  MDS_WRITE_FIELD: it,rec,kS,kL,kH=       1     2   1   1   1 file=xx_atemp.effective.0000000001
(PID.TID 0000.0001)  MDS_READ_FIELD: opening global file: xx_atemp.0000000001.data
(PID.TID 0000.0001)  MDS_WRITE_FIELD: it,rec,kS,kL,kH=       1     3   1   1   1 file=xx_atemp.effective.0000000001
(PID.TID 0000.0001)  MDS_READ_FIELD: opening global file: xx_atemp.0000000001.data
(PID.TID 0000.0001)  MDS_WRITE_FIELD: it,rec,kS,kL,kH=       1     4   1   1   1 file=xx_atemp.effective.0000000001
(PID.TID 0000.0001)  MDS_READ_FIELD: opening global file: xx_atemp.0000000001.data
(PID.TID 0000.0001)  MDS_WRITE_FIELD: it,rec,kS,kL,kH=       1     5   1   1   1 file=xx_atemp.effective.0000000001
(PID.TID 0000.0001)  MDS_READ_FIELD: opening global file: xx_atemp.0000000001.data
(PID.TID 0000.0001)  MDS_WRITE_FIELD: it,rec,kS,kL,kH=       1     6   1   1   1 file=xx_atemp.effective.0000000001
(PID.TID 0000.0001)  MDS_READ_FIELD: opening global file: xx_atemp.effective.0000000001.data
(PID.TID 0000.0001)  MDS_READ_FIELD: opening global file: ones_64b.bin
(PID.TID 0000.0001)  MDS_WRITE_FIELD: it,rec,kS,kL,kH=       1     1   1   1   1 file=xx_atemp.effective.0000000001
(PID.TID 0000.0001)  MDS_READ_FIELD: opening global file: xx_atemp.effective.0000000001.data
(PID.TID 0000.0001)  MDS_READ_FIELD: opening global file: ones_64b.bin
(PID.TID 0000.0001)  MDS_WRITE_FIELD: it,rec,kS,kL,kH=       1     2   1   1   1 file=xx_atemp.effective.0000000001
(PID.TID 0000.0001)  MDS_READ_FIELD: opening global file: xx_atemp.effective.0000000001.data
(PID.TID 0000.0001)  MDS_READ_FIELD: opening global file: ones_64b.bin
(PID.TID 0000.0001)  MDS_WRITE_FIELD: it,rec,kS,kL,kH=       1     3   1   1   1 file=xx_atemp.effective.0000000001
(PID.TID 0000.0001)  MDS_READ_FIELD: opening global file: xx_atemp.effective.0000000001.data
(PID.TID 0000.0001)  MDS_READ_FIELD: opening global file: ones_64b.bin
(PID.TID 0000.0001)  MDS_WRITE_FIELD: it,rec,kS,kL,kH=       1     4   1   1   1 file=xx_atemp.effective.0000000001
(PID.TID 0000.0001)  MDS_READ_FIELD: opening global file: xx_atemp.effective.0000000001.data
(PID.TID 0000.0001)  MDS_READ_FIELD: opening global file: ones_64b.bin
(PID.TID 0000.0001)  MDS_WRITE_FIELD: it,rec,kS,kL,kH=       1     5   1   1   1 file=xx_atemp.effective.0000000001
(PID.TID 0000.0001)  MDS_READ_FIELD: opening global file: xx_atemp.effective.0000000001.data
(PID.TID 0000.0001)  MDS_READ_FIELD: opening global file: ones_64b.bin
(PID.TID 0000.0001)  MDS_WRITE_FIELD: it,rec,kS,kL,kH=       1     6   1   1   1 file=xx_atemp.effective.0000000001
(PID.TID 0000.0001) // =======================================================
(PID.TID 0000.0001) // Model current state
(PID.TID 0000.0001) // =======================================================
(PID.TID 0000.0001) 
(PID.TID 0000.0001)  MDS_WRITE_FIELD: it,rec,kS,kL,kH=       1     1   1   1   1 file=m_sst_step.0000000001
(PID.TID 0000.0001)  MDS_READ_FIELD: opening global file: xx_atemp.effective.0000000001.data
(PID.TID 0000.0001)  MDS_READ_FIELD: opening global file: xx_atemp.effective.0000000001.data
(PID.TID 0000.0001) EXF_SET_FLD: processing field "climsss",  file: SSS_monthly.labsea1979
(PID.TID 0000.0001) EXF_SET_FLD:   myIter, count0, count1:         5      1      2
(PID.TID 0000.0001) EXF_SET_FLD:   first, changed, fac:   T   F    0.49316939890710387
(PID.TID 0000.0001) EXF_SET_FLD: field "climsss", it=         5, loading rec=     1
(PID.TID 0000.0001) EXF_SET_FLD:   from file: "SSS_monthly.labsea1979"
(PID.TID 0000.0001)  MDS_READ_FIELD: opening global file: SSS_monthly.labsea1979
(PID.TID 0000.0001) EXF_SET_FLD: field "climsss", it=         5, loading rec=     2
(PID.TID 0000.0001) EXF_SET_FLD:   from file: "SSS_monthly.labsea1979"
(PID.TID 0000.0001)  MDS_READ_FIELD: opening global file: SSS_monthly.labsea1979
(PID.TID 0000.0001) EXF_SET_FLD: processing field "uwind",  file: u10m.labsea1979
(PID.TID 0000.0001) EXF_SET_FLD:   myIter, count0, count1:         5      1      2
(PID.TID 0000.0001) EXF_SET_FLD:   first, changed, fac:   T   F    0.49316939890710387
(PID.TID 0000.0001) EXF_SET_FLD: field "uwind", it=         5, loading rec=     1
(PID.TID 0000.0001) EXF_SET_FLD:   from file: "u10m.labsea1979"
(PID.TID 0000.0001)  MDS_READ_FIELD: opening global file: u10m.labsea1979
(PID.TID 0000.0001) EXF_SET_FLD: field "uwind", it=         5, loading rec=     2
(PID.TID 0000.0001) EXF_SET_FLD:   from file: "u10m.labsea1979"
(PID.TID 0000.0001)  MDS_READ_FIELD: opening global file: u10m.labsea1979
(PID.TID 0000.0001) EXF_SET_FLD: processing field "vwind",  file: v10m.labsea1979
(PID.TID 0000.0001) EXF_SET_FLD:   myIter, count0, count1:         5      1      2
(PID.TID 0000.0001) EXF_SET_FLD:   first, changed, fac:   T   F    0.49316939890710387
(PID.TID 0000.0001) EXF_SET_FLD: field "vwind", it=         5, loading rec=     1
(PID.TID 0000.0001) EXF_SET_FLD:   from file: "v10m.labsea1979"
(PID.TID 0000.0001)  MDS_READ_FIELD: opening global file: v10m.labsea1979
(PID.TID 0000.0001) EXF_SET_FLD: field "vwind", it=         5, loading rec=     2
(PID.TID 0000.0001) EXF_SET_FLD:   from file: "v10m.labsea1979"
(PID.TID 0000.0001)  MDS_READ_FIELD: opening global file: v10m.labsea1979
(PID.TID 0000.0001) EXF_SET_FLD: processing field "atemp",  file: tair.labsea1979
(PID.TID 0000.0001) EXF_SET_FLD:   myIter, count0, count1:         5      1      2
(PID.TID 0000.0001) EXF_SET_FLD:   first, changed, fac:   T   F    0.49316939890710387
(PID.TID 0000.0001) EXF_SET_FLD: field "atemp", it=         5, loading rec=     1
(PID.TID 0000.0001) EXF_SET_FLD:   from file: "tair.labsea1979"
(PID.TID 0000.0001)  MDS_READ_FIELD: opening global file: tair.labsea1979
(PID.TID 0000.0001) EXF_SET_FLD: field "atemp", it=         5, loading rec=     2
(PID.TID 0000.0001) EXF_SET_FLD:   from file: "tair.labsea1979"
(PID.TID 0000.0001)  MDS_READ_FIELD: opening global file: tair.labsea1979
(PID.TID 0000.0001) EXF_SET_FLD: processing field "aqh",  file: qa.labsea1979
(PID.TID 0000.0001) EXF_SET_FLD:   myIter, count0, count1:         5      1      2
(PID.TID 0000.0001) EXF_SET_FLD:   first, changed, fac:   T   F    0.49316939890710387
(PID.TID 0000.0001) EXF_SET_FLD: field "aqh", it=         5, loading rec=     1
(PID.TID 0000.0001) EXF_SET_FLD:   from file: "qa.labsea1979"
(PID.TID 0000.0001)  MDS_READ_FIELD: opening global file: qa.labsea1979
(PID.TID 0000.0001) EXF_SET_FLD: field "aqh", it=         5, loading rec=     2
(PID.TID 0000.0001) EXF_SET_FLD:   from file: "qa.labsea1979"
(PID.TID 0000.0001)  MDS_READ_FIELD: opening global file: qa.labsea1979
(PID.TID 0000.0001) EXF_SET_FLD: processing field "precip",  file: prate.labsea1979
(PID.TID 0000.0001) EXF_SET_FLD:   myIter, count0, count1:         5      1      2
(PID.TID 0000.0001) EXF_SET_FLD:   first, changed, fac:   T   F    0.49316939890710387
(PID.TID 0000.0001) EXF_SET_FLD: field "precip", it=         5, loading rec=     1
(PID.TID 0000.0001) EXF_SET_FLD:   from file: "prate.labsea1979"
(PID.TID 0000.0001)  MDS_READ_FIELD: opening global file: prate.labsea1979
(PID.TID 0000.0001) EXF_SET_FLD: field "precip", it=         5, loading rec=     2
(PID.TID 0000.0001) EXF_SET_FLD:   from file: "prate.labsea1979"
(PID.TID 0000.0001)  MDS_READ_FIELD: opening global file: prate.labsea1979
(PID.TID 0000.0001) EXF_SET_FLD: processing field "swdown",  file: fsh.labsea1979
(PID.TID 0000.0001) EXF_SET_FLD:   myIter, count0, count1:         5      1      2
(PID.TID 0000.0001) EXF_SET_FLD:   first, changed, fac:   T   F    0.49316939890710387
(PID.TID 0000.0001) EXF_SET_FLD: field "swdown", it=         5, loading rec=     1
(PID.TID 0000.0001) EXF_SET_FLD:   from file: "fsh.labsea1979"
(PID.TID 0000.0001)  MDS_READ_FIELD: opening global file: fsh.labsea1979
(PID.TID 0000.0001) EXF_SET_FLD: field "swdown", it=         5, loading rec=     2
(PID.TID 0000.0001) EXF_SET_FLD:   from file: "fsh.labsea1979"
(PID.TID 0000.0001)  MDS_READ_FIELD: opening global file: fsh.labsea1979
(PID.TID 0000.0001) EXF_SET_FLD: processing field "lwdown",  file: flo.labsea1979
(PID.TID 0000.0001) EXF_SET_FLD:   myIter, count0, count1:         5      1      2
(PID.TID 0000.0001) EXF_SET_FLD:   first, changed, fac:   T   F    0.49316939890710387
(PID.TID 0000.0001) EXF_SET_FLD: field "lwdown", it=         5, loading rec=     1
(PID.TID 0000.0001) EXF_SET_FLD:   from file: "flo.labsea1979"
(PID.TID 0000.0001)  MDS_READ_FIELD: opening global file: flo.labsea1979
(PID.TID 0000.0001) EXF_SET_FLD: field "lwdown", it=         5, loading rec=     2
(PID.TID 0000.0001) EXF_SET_FLD:   from file: "flo.labsea1979"
(PID.TID 0000.0001)  MDS_READ_FIELD: opening global file: flo.labsea1979
DEBUG_STATS_RL: Uice pre  iter (SEAICE_LSR  1)  min= -9.02121933428159E-03
DEBUG_STATS_RL: Uice pre  iter (SEAICE_LSR  1)  max=  2.19445684647109E-01
DEBUG_STATS_RL: Uice pre  iter (SEAICE_LSR  1) mean=  6.96639305502532E-02
DEBUG_STATS_RL: Uice pre  iter (SEAICE_LSR  1) S.D.=  7.25590715280224E-02
DEBUG_STATS_RL: Vice pre  iter (SEAICE_LSR  1)  min= -1.73112057819563E-01
DEBUG_STATS_RL: Vice pre  iter (SEAICE_LSR  1)  max=  1.05174802576008E-01
DEBUG_STATS_RL: Vice pre  iter (SEAICE_LSR  1) mean= -3.44957645455127E-02
DEBUG_STATS_RL: Vice pre  iter (SEAICE_LSR  1) S.D.=  5.17027322842165E-02
DEBUG_STATS_RL: Uice pre  iter (SEAICE_LSR  2)  min= -9.93295031152210E-03
DEBUG_STATS_RL: Uice pre  iter (SEAICE_LSR  2)  max=  2.37649472779152E-01
DEBUG_STATS_RL: Uice pre  iter (SEAICE_LSR  2) mean=  7.08960993522900E-02
DEBUG_STATS_RL: Uice pre  iter (SEAICE_LSR  2) S.D.=  7.51814019583860E-02
DEBUG_STATS_RL: Vice pre  iter (SEAICE_LSR  2)  min= -1.73458139241626E-01
DEBUG_STATS_RL: Vice pre  iter (SEAICE_LSR  2)  max=  1.02503634704982E-01
DEBUG_STATS_RL: Vice pre  iter (SEAICE_LSR  2) mean= -3.89801386768760E-02
DEBUG_STATS_RL: Vice pre  iter (SEAICE_LSR  2) S.D.=  5.44920749395038E-02
DEBUG_STATS_RL:                EtaN (DYNAMICS)  min= -1.29709672821213E-01
DEBUG_STATS_RL:                EtaN (DYNAMICS)  max=  3.25626876398477E-01
DEBUG_STATS_RL:                EtaN (DYNAMICS) mean= -3.00841690122536E-03
DEBUG_STATS_RL:                EtaN (DYNAMICS) S.D.=  7.54180814594036E-02
DEBUG_STATS_RL:                Uvel (DYNAMICS)  min= -3.64296443204224E-02
DEBUG_STATS_RL:                Uvel (DYNAMICS)  max=  8.91662112566489E-02
DEBUG_STATS_RL:                Uvel (DYNAMICS) mean=  5.18186102505262E-03
DEBUG_STATS_RL:                Uvel (DYNAMICS) S.D.=  1.36791834404111E-02
DEBUG_STATS_RL:                Vvel (DYNAMICS)  min= -8.48427067731397E-02
DEBUG_STATS_RL:                Vvel (DYNAMICS)  max=  7.15709637633448E-02
DEBUG_STATS_RL:                Vvel (DYNAMICS) mean= -6.25663991250223E-04
DEBUG_STATS_RL:                Vvel (DYNAMICS) S.D.=  1.65568599029307E-02
DEBUG_STATS_RL:                Wvel (DYNAMICS)  min= -2.02998023749463E-04
DEBUG_STATS_RL:                Wvel (DYNAMICS)  max=  3.07634744219620E-04
DEBUG_STATS_RL:                Wvel (DYNAMICS) mean= -2.14485636605179E-07
DEBUG_STATS_RL:                Wvel (DYNAMICS) S.D.=  2.56514188295233E-05
DEBUG_STATS_RL:               Theta (DYNAMICS)  min= -1.95891909892377E+00
DEBUG_STATS_RL:               Theta (DYNAMICS)  max=  1.32575107273067E+01
DEBUG_STATS_RL:               Theta (DYNAMICS) mean=  2.41560973729717E+00
DEBUG_STATS_RL:               Theta (DYNAMICS) S.D.=  2.57506629522921E+00
DEBUG_STATS_RL:                Salt (DYNAMICS)  min=  2.76241835718781E+01
DEBUG_STATS_RL:                Salt (DYNAMICS)  max=  3.54512322319690E+01
DEBUG_STATS_RL:                Salt (DYNAMICS) mean=  3.39367610972827E+01
DEBUG_STATS_RL:                Salt (DYNAMICS) S.D.=  1.15400523729775E+00
DEBUG_STATS_RL:                  Gu (DYNAMICS)  min= -3.40661284878781E-02
DEBUG_STATS_RL:                  Gu (DYNAMICS)  max=  1.09592409505601E-01
DEBUG_STATS_RL:                  Gu (DYNAMICS) mean=  3.43340148231612E-03
DEBUG_STATS_RL:                  Gu (DYNAMICS) S.D.=  1.52106643070904E-02
DEBUG_STATS_RL:                  Gv (DYNAMICS)  min= -1.19743996000496E-01
DEBUG_STATS_RL:                  Gv (DYNAMICS)  max=  5.31755908727337E-02
DEBUG_STATS_RL:                  Gv (DYNAMICS) mean= -6.43607759844673E-03
DEBUG_STATS_RL:                  Gv (DYNAMICS) S.D.=  1.74595586593132E-02
DEBUG_STATS_RL:               GuNm1 (DYNAMICS)  min= -2.94347299884301E-07
DEBUG_STATS_RL:               GuNm1 (DYNAMICS)  max=  1.78770581560375E-07
DEBUG_STATS_RL:               GuNm1 (DYNAMICS) mean= -3.06311171945198E-09
DEBUG_STATS_RL:               GuNm1 (DYNAMICS) S.D.=  4.19614199163276E-08
DEBUG_STATS_RL:               GvNm1 (DYNAMICS)  min= -1.82273635415880E-07
DEBUG_STATS_RL:               GvNm1 (DYNAMICS)  max=  1.24273330978528E-07
DEBUG_STATS_RL:               GvNm1 (DYNAMICS) mean= -1.05360009952046E-09
DEBUG_STATS_RL:               GvNm1 (DYNAMICS) S.D.=  3.58773704868012E-08
DEBUG_STATS_RL:               GtNm1 (DYNAMICS)  min=  0.00000000000000E+00
DEBUG_STATS_RL:               GtNm1 (DYNAMICS)  max=  0.00000000000000E+00
DEBUG_STATS_RL:               GtNm1 (DYNAMICS) mean=  0.00000000000000E+00
DEBUG_STATS_RL:               GtNm1 (DYNAMICS) S.D.=  0.00000000000000E+00
DEBUG_STATS_RL:               GsNm1 (DYNAMICS)  min=  0.00000000000000E+00
DEBUG_STATS_RL:               GsNm1 (DYNAMICS)  max=  0.00000000000000E+00
DEBUG_STATS_RL:               GsNm1 (DYNAMICS) mean=  0.00000000000000E+00
DEBUG_STATS_RL:               GsNm1 (DYNAMICS) S.D.=  0.00000000000000E+00
(PID.TID 0000.0001) SOLVE_FOR_PRESSURE: putPmEinXvector =    F
DEBUG_STATS_RL:    cg2d_b (SOLVE_FOR_PRESSURE)  min= -7.45833771571459E+03
DEBUG_STATS_RL:    cg2d_b (SOLVE_FOR_PRESSURE)  max=  2.17494903027769E+03
DEBUG_STATS_RL:    cg2d_b (SOLVE_FOR_PRESSURE) mean=  4.18935997004155E-13
DEBUG_STATS_RL:    cg2d_b (SOLVE_FOR_PRESSURE) S.D.=  9.06377010650268E+02
 cg2d: Sum(rhs),rhsMax =   8.29197821516914E-15  1.20041496847834E+00
DEBUG_STATS_RL:    cg2d_x (SOLVE_FOR_PRESSURE)  min= -1.23196163368130E+00
DEBUG_STATS_RL:    cg2d_x (SOLVE_FOR_PRESSURE)  max=  3.23727429689848E+00
DEBUG_STATS_RL:    cg2d_x (SOLVE_FOR_PRESSURE) mean= -3.45194761148230E-02
DEBUG_STATS_RL:    cg2d_x (SOLVE_FOR_PRESSURE) S.D.=  7.10912240392561E-01
DEBUG_STATS_RL:          Uvel (THERMODYNAMICS)  min= -3.59096386964102E-02
DEBUG_STATS_RL:          Uvel (THERMODYNAMICS)  max=  1.01288605318195E-01
DEBUG_STATS_RL:          Uvel (THERMODYNAMICS) mean=  5.06442107691443E-03
DEBUG_STATS_RL:          Uvel (THERMODYNAMICS) S.D.=  1.40087544095653E-02
DEBUG_STATS_RL:          Vvel (THERMODYNAMICS)  min= -1.10756263988798E-01
DEBUG_STATS_RL:          Vvel (THERMODYNAMICS)  max=  7.07208418107748E-02
DEBUG_STATS_RL:          Vvel (THERMODYNAMICS) mean= -2.17557054828444E-03
DEBUG_STATS_RL:          Vvel (THERMODYNAMICS) S.D.=  1.80912833066385E-02
DEBUG_STATS_RL:          Wvel (THERMODYNAMICS)  min= -2.43811460414301E-04
DEBUG_STATS_RL:          Wvel (THERMODYNAMICS)  max=  3.28816353261790E-04
DEBUG_STATS_RL:          Wvel (THERMODYNAMICS) mean= -1.37923543342930E-07
DEBUG_STATS_RL:          Wvel (THERMODYNAMICS) S.D.=  2.75149300864468E-05
DEBUG_STATS_RL:         Theta (THERMODYNAMICS)  min= -1.96015217723737E+00
DEBUG_STATS_RL:         Theta (THERMODYNAMICS)  max=  1.32512671183370E+01
DEBUG_STATS_RL:         Theta (THERMODYNAMICS) mean=  2.41531606071968E+00
DEBUG_STATS_RL:         Theta (THERMODYNAMICS) S.D.=  2.57483151675911E+00
DEBUG_STATS_RL:          Salt (THERMODYNAMICS)  min=  2.76290307531745E+01
DEBUG_STATS_RL:          Salt (THERMODYNAMICS)  max=  3.54512307060718E+01
DEBUG_STATS_RL:          Salt (THERMODYNAMICS) mean=  3.39367446276238E+01
DEBUG_STATS_RL:          Salt (THERMODYNAMICS) S.D.=  1.15382313156805E+00
DEBUG_STATS_RL:         GtNm1 (THERMODYNAMICS)  min=  0.00000000000000E+00
DEBUG_STATS_RL:         GtNm1 (THERMODYNAMICS)  max=  0.00000000000000E+00
DEBUG_STATS_RL:         GtNm1 (THERMODYNAMICS) mean=  0.00000000000000E+00
DEBUG_STATS_RL:         GtNm1 (THERMODYNAMICS) S.D.=  0.00000000000000E+00
DEBUG_STATS_RL:         GsNm1 (THERMODYNAMICS)  min=  0.00000000000000E+00
DEBUG_STATS_RL:         GsNm1 (THERMODYNAMICS)  max=  0.00000000000000E+00
DEBUG_STATS_RL:         GsNm1 (THERMODYNAMICS) mean=  0.00000000000000E+00
DEBUG_STATS_RL:         GsNm1 (THERMODYNAMICS) S.D.=  0.00000000000000E+00
(PID.TID 0000.0001)  MDS_WRITE_FIELD: it,rec,kS,kL,kH=       1     2   1   1   1 file=m_sst_step.0000000001
(PID.TID 0000.0001)  MDS_READ_FIELD: opening global file: xx_atemp.effective.0000000001.data
(PID.TID 0000.0001) EXF_SET_FLD: processing field "climsss",  file: SSS_monthly.labsea1979
(PID.TID 0000.0001) EXF_SET_FLD:   myIter, count0, count1:         6      1      2
(PID.TID 0000.0001) EXF_SET_FLD:   first, changed, fac:   F   F    0.49180327868852458
(PID.TID 0000.0001) EXF_SET_FLD: processing field "uwind",  file: u10m.labsea1979
(PID.TID 0000.0001) EXF_SET_FLD:   myIter, count0, count1:         6      1      2
(PID.TID 0000.0001) EXF_SET_FLD:   first, changed, fac:   F   F    0.49180327868852458
(PID.TID 0000.0001) EXF_SET_FLD: processing field "vwind",  file: v10m.labsea1979
(PID.TID 0000.0001) EXF_SET_FLD:   myIter, count0, count1:         6      1      2
(PID.TID 0000.0001) EXF_SET_FLD:   first, changed, fac:   F   F    0.49180327868852458
(PID.TID 0000.0001) EXF_SET_FLD: processing field "atemp",  file: tair.labsea1979
(PID.TID 0000.0001) EXF_SET_FLD:   myIter, count0, count1:         6      1      2
(PID.TID 0000.0001) EXF_SET_FLD:   first, changed, fac:   F   F    0.49180327868852458
(PID.TID 0000.0001) EXF_SET_FLD: processing field "aqh",  file: qa.labsea1979
(PID.TID 0000.0001) EXF_SET_FLD:   myIter, count0, count1:         6      1      2
(PID.TID 0000.0001) EXF_SET_FLD:   first, changed, fac:   F   F    0.49180327868852458
(PID.TID 0000.0001) EXF_SET_FLD: processing field "precip",  file: prate.labsea1979
(PID.TID 0000.0001) EXF_SET_FLD:   myIter, count0, count1:         6      1      2
(PID.TID 0000.0001) EXF_SET_FLD:   first, changed, fac:   F   F    0.49180327868852458
(PID.TID 0000.0001) EXF_SET_FLD: processing field "swdown",  file: fsh.labsea1979
(PID.TID 0000.0001) EXF_SET_FLD:   myIter, count0, count1:         6      1      2
(PID.TID 0000.0001) EXF_SET_FLD:   first, changed, fac:   F   F    0.49180327868852458
(PID.TID 0000.0001) EXF_SET_FLD: processing field "lwdown",  file: flo.labsea1979
(PID.TID 0000.0001) EXF_SET_FLD:   myIter, count0, count1:         6      1      2
(PID.TID 0000.0001) EXF_SET_FLD:   first, changed, fac:   F   F    0.49180327868852458
DEBUG_STATS_RL: Uice pre  iter (SEAICE_LSR  1)  min= -1.19106759196614E-02
DEBUG_STATS_RL: Uice pre  iter (SEAICE_LSR  1)  max=  2.40859973799500E-01
DEBUG_STATS_RL: Uice pre  iter (SEAICE_LSR  1) mean=  7.02597534860948E-02
DEBUG_STATS_RL: Uice pre  iter (SEAICE_LSR  1) S.D.=  7.57773428259753E-02
DEBUG_STATS_RL: Vice pre  iter (SEAICE_LSR  1)  min= -1.74132342678207E-01
DEBUG_STATS_RL: Vice pre  iter (SEAICE_LSR  1)  max=  9.66358613081399E-02
DEBUG_STATS_RL: Vice pre  iter (SEAICE_LSR  1) mean= -4.28491368242810E-02
DEBUG_STATS_RL: Vice pre  iter (SEAICE_LSR  1) S.D.=  5.63763392291550E-02
DEBUG_STATS_RL: Uice pre  iter (SEAICE_LSR  2)  min= -1.30564509125757E-02
DEBUG_STATS_RL: Uice pre  iter (SEAICE_LSR  2)  max=  2.47901039964918E-01
DEBUG_STATS_RL: Uice pre  iter (SEAICE_LSR  2) mean=  6.80717062410296E-02
DEBUG_STATS_RL: Uice pre  iter (SEAICE_LSR  2) S.D.=  7.48548542542582E-02
DEBUG_STATS_RL: Vice pre  iter (SEAICE_LSR  2)  min= -1.68314830999124E-01
DEBUG_STATS_RL: Vice pre  iter (SEAICE_LSR  2)  max=  8.87290074915900E-02
DEBUG_STATS_RL: Vice pre  iter (SEAICE_LSR  2) mean= -4.61137817409455E-02
DEBUG_STATS_RL: Vice pre  iter (SEAICE_LSR  2) S.D.=  5.74118961796309E-02
DEBUG_STATS_RL:                EtaN (DYNAMICS)  min= -1.25510578434462E-01
DEBUG_STATS_RL:                EtaN (DYNAMICS)  max=  3.29809109672203E-01
DEBUG_STATS_RL:                EtaN (DYNAMICS) mean= -3.51679735470302E-03
DEBUG_STATS_RL:                EtaN (DYNAMICS) S.D.=  7.24267737471536E-02
DEBUG_STATS_RL:                Uvel (DYNAMICS)  min= -3.59096386964102E-02
DEBUG_STATS_RL:                Uvel (DYNAMICS)  max=  1.01288605318195E-01
DEBUG_STATS_RL:                Uvel (DYNAMICS) mean=  5.06442107691443E-03
DEBUG_STATS_RL:                Uvel (DYNAMICS) S.D.=  1.40087544095653E-02
DEBUG_STATS_RL:                Vvel (DYNAMICS)  min= -1.10756263988798E-01
DEBUG_STATS_RL:                Vvel (DYNAMICS)  max=  7.07208418107748E-02
DEBUG_STATS_RL:                Vvel (DYNAMICS) mean= -2.17557054828444E-03
DEBUG_STATS_RL:                Vvel (DYNAMICS) S.D.=  1.80912833066385E-02
DEBUG_STATS_RL:                Wvel (DYNAMICS)  min= -2.43811460414301E-04
DEBUG_STATS_RL:                Wvel (DYNAMICS)  max=  3.28816353261790E-04
DEBUG_STATS_RL:                Wvel (DYNAMICS) mean= -1.37923543342930E-07
DEBUG_STATS_RL:                Wvel (DYNAMICS) S.D.=  2.75149300864468E-05
DEBUG_STATS_RL:               Theta (DYNAMICS)  min= -1.96015217723737E+00
DEBUG_STATS_RL:               Theta (DYNAMICS)  max=  1.32512671183370E+01
DEBUG_STATS_RL:               Theta (DYNAMICS) mean=  2.41531606071968E+00
DEBUG_STATS_RL:               Theta (DYNAMICS) S.D.=  2.57483151675911E+00
DEBUG_STATS_RL:                Salt (DYNAMICS)  min=  2.76290307531745E+01
DEBUG_STATS_RL:                Salt (DYNAMICS)  max=  3.54512307060718E+01
DEBUG_STATS_RL:                Salt (DYNAMICS) mean=  3.39367446276238E+01
DEBUG_STATS_RL:                Salt (DYNAMICS) S.D.=  1.15382313156805E+00
DEBUG_STATS_RL:                  Gu (DYNAMICS)  min= -4.45840116890899E-02
DEBUG_STATS_RL:                  Gu (DYNAMICS)  max=  1.13252404039500E-01
DEBUG_STATS_RL:                  Gu (DYNAMICS) mean=  3.02808241161229E-03
DEBUG_STATS_RL:                  Gu (DYNAMICS) S.D.=  1.59063121238893E-02
DEBUG_STATS_RL:                  Gv (DYNAMICS)  min= -1.34630447324912E-01
DEBUG_STATS_RL:                  Gv (DYNAMICS)  max=  4.81174890382835E-02
DEBUG_STATS_RL:                  Gv (DYNAMICS) mean= -7.41639241987065E-03
DEBUG_STATS_RL:                  Gv (DYNAMICS) S.D.=  1.85638365104700E-02
DEBUG_STATS_RL:               GuNm1 (DYNAMICS)  min= -3.33271036892904E-07
DEBUG_STATS_RL:               GuNm1 (DYNAMICS)  max=  1.87479663955270E-07
DEBUG_STATS_RL:               GuNm1 (DYNAMICS) mean= -3.31200046769952E-09
DEBUG_STATS_RL:               GuNm1 (DYNAMICS) S.D.=  4.08419141881971E-08
DEBUG_STATS_RL:               GvNm1 (DYNAMICS)  min= -2.04912919624491E-07
DEBUG_STATS_RL:               GvNm1 (DYNAMICS)  max=  1.56710147054438E-07
DEBUG_STATS_RL:               GvNm1 (DYNAMICS) mean= -8.96938696731291E-10
DEBUG_STATS_RL:               GvNm1 (DYNAMICS) S.D.=  3.95873164870957E-08
DEBUG_STATS_RL:               GtNm1 (DYNAMICS)  min=  0.00000000000000E+00
DEBUG_STATS_RL:               GtNm1 (DYNAMICS)  max=  0.00000000000000E+00
DEBUG_STATS_RL:               GtNm1 (DYNAMICS) mean=  0.00000000000000E+00
DEBUG_STATS_RL:               GtNm1 (DYNAMICS) S.D.=  0.00000000000000E+00
DEBUG_STATS_RL:               GsNm1 (DYNAMICS)  min=  0.00000000000000E+00
DEBUG_STATS_RL:               GsNm1 (DYNAMICS)  max=  0.00000000000000E+00
DEBUG_STATS_RL:               GsNm1 (DYNAMICS) mean=  0.00000000000000E+00
DEBUG_STATS_RL:               GsNm1 (DYNAMICS) S.D.=  0.00000000000000E+00
DEBUG_STATS_RL:    cg2d_b (SOLVE_FOR_PRESSURE)  min= -7.43169656861245E+03
DEBUG_STATS_RL:    cg2d_b (SOLVE_FOR_PRESSURE)  max=  2.17598296942634E+03
DEBUG_STATS_RL:    cg2d_b (SOLVE_FOR_PRESSURE) mean=  6.96331881044898E-13
DEBUG_STATS_RL:    cg2d_b (SOLVE_FOR_PRESSURE) S.D.=  9.02750100849735E+02
 cg2d: Sum(rhs),rhsMax =   1.41067713066434E-14  1.19612709187932E+00
DEBUG_STATS_RL:    cg2d_x (SOLVE_FOR_PRESSURE)  min= -1.18794061890904E+00
DEBUG_STATS_RL:    cg2d_x (SOLVE_FOR_PRESSURE)  max=  3.24511049575726E+00
DEBUG_STATS_RL:    cg2d_x (SOLVE_FOR_PRESSURE) mean= -3.88654400025836E-02
DEBUG_STATS_RL:    cg2d_x (SOLVE_FOR_PRESSURE) S.D.=  6.81167535252279E-01
DEBUG_STATS_RL:          Uvel (THERMODYNAMICS)  min= -3.57601727936033E-02
DEBUG_STATS_RL:          Uvel (THERMODYNAMICS)  max=  1.04775938290593E-01
DEBUG_STATS_RL:          Uvel (THERMODYNAMICS) mean=  4.39725630125182E-03
DEBUG_STATS_RL:          Uvel (THERMODYNAMICS) S.D.=  1.39028540310335E-02
DEBUG_STATS_RL:          Vvel (THERMODYNAMICS)  min= -1.27584762387762E-01
DEBUG_STATS_RL:          Vvel (THERMODYNAMICS)  max=  6.50083276838834E-02
DEBUG_STATS_RL:          Vvel (THERMODYNAMICS) mean= -3.36887217582008E-03
DEBUG_STATS_RL:          Vvel (THERMODYNAMICS) S.D.=  1.85890275650197E-02
DEBUG_STATS_RL:          Wvel (THERMODYNAMICS)  min= -2.67954696014334E-04
DEBUG_STATS_RL:          Wvel (THERMODYNAMICS)  max=  3.29804232734301E-04
DEBUG_STATS_RL:          Wvel (THERMODYNAMICS) mean= -4.85616750767614E-08
DEBUG_STATS_RL:          Wvel (THERMODYNAMICS) S.D.=  2.84164537902804E-05
DEBUG_STATS_RL:         Theta (THERMODYNAMICS)  min= -1.95963016104374E+00
DEBUG_STATS_RL:         Theta (THERMODYNAMICS)  max=  1.32396343409662E+01
DEBUG_STATS_RL:         Theta (THERMODYNAMICS) mean=  2.41506584132490E+00
DEBUG_STATS_RL:         Theta (THERMODYNAMICS) S.D.=  2.57443936967394E+00
DEBUG_STATS_RL:          Salt (THERMODYNAMICS)  min=  2.76338867569799E+01
DEBUG_STATS_RL:          Salt (THERMODYNAMICS)  max=  3.54511617149686E+01
DEBUG_STATS_RL:          Salt (THERMODYNAMICS) mean=  3.39367496241626E+01
DEBUG_STATS_RL:          Salt (THERMODYNAMICS) S.D.=  1.15359229307638E+00
DEBUG_STATS_RL:         GtNm1 (THERMODYNAMICS)  min=  0.00000000000000E+00
DEBUG_STATS_RL:         GtNm1 (THERMODYNAMICS)  max=  0.00000000000000E+00
DEBUG_STATS_RL:         GtNm1 (THERMODYNAMICS) mean=  0.00000000000000E+00
DEBUG_STATS_RL:         GtNm1 (THERMODYNAMICS) S.D.=  0.00000000000000E+00
DEBUG_STATS_RL:         GsNm1 (THERMODYNAMICS)  min=  0.00000000000000E+00
DEBUG_STATS_RL:         GsNm1 (THERMODYNAMICS)  max=  0.00000000000000E+00
DEBUG_STATS_RL:         GsNm1 (THERMODYNAMICS) mean=  0.00000000000000E+00
DEBUG_STATS_RL:         GsNm1 (THERMODYNAMICS) S.D.=  0.00000000000000E+00
(PID.TID 0000.0001)  MDS_WRITE_FIELD: it,rec,kS,kL,kH=       1     3   1   1   1 file=m_sst_step.0000000001
(PID.TID 0000.0001)  MDS_READ_FIELD: opening global file: xx_atemp.effective.0000000001.data
(PID.TID 0000.0001) EXF_SET_FLD: processing field "climsss",  file: SSS_monthly.labsea1979
(PID.TID 0000.0001) EXF_SET_FLD:   myIter, count0, count1:         7      1      2
(PID.TID 0000.0001) EXF_SET_FLD:   first, changed, fac:   F   F    0.49043715846994540
(PID.TID 0000.0001) EXF_SET_FLD: processing field "uwind",  file: u10m.labsea1979
(PID.TID 0000.0001) EXF_SET_FLD:   myIter, count0, count1:         7      1      2
(PID.TID 0000.0001) EXF_SET_FLD:   first, changed, fac:   F   F    0.49043715846994540
(PID.TID 0000.0001) EXF_SET_FLD: processing field "vwind",  file: v10m.labsea1979
(PID.TID 0000.0001) EXF_SET_FLD:   myIter, count0, count1:         7      1      2
(PID.TID 0000.0001) EXF_SET_FLD:   first, changed, fac:   F   F    0.49043715846994540
(PID.TID 0000.0001) EXF_SET_FLD: processing field "atemp",  file: tair.labsea1979
(PID.TID 0000.0001) EXF_SET_FLD:   myIter, count0, count1:         7      1      2
(PID.TID 0000.0001) EXF_SET_FLD:   first, changed, fac:   F   F    0.49043715846994540
(PID.TID 0000.0001) EXF_SET_FLD: processing field "aqh",  file: qa.labsea1979
(PID.TID 0000.0001) EXF_SET_FLD:   myIter, count0, count1:         7      1      2
(PID.TID 0000.0001) EXF_SET_FLD:   first, changed, fac:   F   F    0.49043715846994540
(PID.TID 0000.0001) EXF_SET_FLD: processing field "precip",  file: prate.labsea1979
(PID.TID 0000.0001) EXF_SET_FLD:   myIter, count0, count1:         7      1      2
(PID.TID 0000.0001) EXF_SET_FLD:   first, changed, fac:   F   F    0.49043715846994540
(PID.TID 0000.0001) EXF_SET_FLD: processing field "swdown",  file: fsh.labsea1979
(PID.TID 0000.0001) EXF_SET_FLD:   myIter, count0, count1:         7      1      2
(PID.TID 0000.0001) EXF_SET_FLD:   first, changed, fac:   F   F    0.49043715846994540
(PID.TID 0000.0001) EXF_SET_FLD: processing field "lwdown",  file: flo.labsea1979
(PID.TID 0000.0001) EXF_SET_FLD:   myIter, count0, count1:         7      1      2
(PID.TID 0000.0001) EXF_SET_FLD:   first, changed, fac:   F   F    0.49043715846994540
DEBUG_STATS_RL: Uice pre  iter (SEAICE_LSR  1)  min= -1.54549194525866E-02
DEBUG_STATS_RL: Uice pre  iter (SEAICE_LSR  1)  max=  2.53524286292195E-01
DEBUG_STATS_RL: Uice pre  iter (SEAICE_LSR  1) mean=  6.68799365320119E-02
DEBUG_STATS_RL: Uice pre  iter (SEAICE_LSR  1) S.D.=  7.54478852962580E-02
DEBUG_STATS_RL: Vice pre  iter (SEAICE_LSR  1)  min= -1.68373183021268E-01
DEBUG_STATS_RL: Vice pre  iter (SEAICE_LSR  1)  max=  8.10859368452303E-02
DEBUG_STATS_RL: Vice pre  iter (SEAICE_LSR  1) mean= -4.94905385200998E-02
DEBUG_STATS_RL: Vice pre  iter (SEAICE_LSR  1) S.D.=  5.89447951203408E-02
DEBUG_STATS_RL: Uice pre  iter (SEAICE_LSR  2)  min= -1.68104910559763E-02
DEBUG_STATS_RL: Uice pre  iter (SEAICE_LSR  2)  max=  2.51381266335640E-01
DEBUG_STATS_RL: Uice pre  iter (SEAICE_LSR  2) mean=  6.26056742417120E-02
DEBUG_STATS_RL: Uice pre  iter (SEAICE_LSR  2) S.D.=  7.23215228186589E-02
DEBUG_STATS_RL: Vice pre  iter (SEAICE_LSR  2)  min= -1.70146515867233E-01
DEBUG_STATS_RL: Vice pre  iter (SEAICE_LSR  2)  max=  7.01571636850258E-02
DEBUG_STATS_RL: Vice pre  iter (SEAICE_LSR  2) mean= -5.12009841743803E-02
DEBUG_STATS_RL: Vice pre  iter (SEAICE_LSR  2) S.D.=  5.84735965012139E-02
DEBUG_STATS_RL:                EtaN (DYNAMICS)  min= -1.21025777222894E-01
DEBUG_STATS_RL:                EtaN (DYNAMICS)  max=  3.30607450971643E-01
DEBUG_STATS_RL:                EtaN (DYNAMICS) mean= -3.95955825447081E-03
DEBUG_STATS_RL:                EtaN (DYNAMICS) S.D.=  6.93964235759688E-02
DEBUG_STATS_RL:                Uvel (DYNAMICS)  min= -3.57601727936033E-02
DEBUG_STATS_RL:                Uvel (DYNAMICS)  max=  1.04775938290593E-01
DEBUG_STATS_RL:                Uvel (DYNAMICS) mean=  4.39725630125182E-03
DEBUG_STATS_RL:                Uvel (DYNAMICS) S.D.=  1.39028540310335E-02
DEBUG_STATS_RL:                Vvel (DYNAMICS)  min= -1.27584762387762E-01
DEBUG_STATS_RL:                Vvel (DYNAMICS)  max=  6.50083276838834E-02
DEBUG_STATS_RL:                Vvel (DYNAMICS) mean= -3.36887217582008E-03
DEBUG_STATS_RL:                Vvel (DYNAMICS) S.D.=  1.85890275650197E-02
DEBUG_STATS_RL:                Wvel (DYNAMICS)  min= -2.67954696014334E-04
DEBUG_STATS_RL:                Wvel (DYNAMICS)  max=  3.29804232734301E-04
DEBUG_STATS_RL:                Wvel (DYNAMICS) mean= -4.85616750767614E-08
DEBUG_STATS_RL:                Wvel (DYNAMICS) S.D.=  2.84164537902804E-05
DEBUG_STATS_RL:               Theta (DYNAMICS)  min= -1.95963016104374E+00
DEBUG_STATS_RL:               Theta (DYNAMICS)  max=  1.32396343409662E+01
DEBUG_STATS_RL:               Theta (DYNAMICS) mean=  2.41506584132490E+00
DEBUG_STATS_RL:               Theta (DYNAMICS) S.D.=  2.57443936967394E+00
DEBUG_STATS_RL:                Salt (DYNAMICS)  min=  2.76338867569799E+01
DEBUG_STATS_RL:                Salt (DYNAMICS)  max=  3.54511617149686E+01
DEBUG_STATS_RL:                Salt (DYNAMICS) mean=  3.39367496241626E+01
DEBUG_STATS_RL:                Salt (DYNAMICS) S.D.=  1.15359229307638E+00
DEBUG_STATS_RL:                  Gu (DYNAMICS)  min= -5.18639383664093E-02
DEBUG_STATS_RL:                  Gu (DYNAMICS)  max=  1.08500044377568E-01
DEBUG_STATS_RL:                  Gu (DYNAMICS) mean=  2.22152146945400E-03
DEBUG_STATS_RL:                  Gu (DYNAMICS) S.D.=  1.62488741545267E-02
DEBUG_STATS_RL:                  Gv (DYNAMICS)  min= -1.40216393355448E-01
DEBUG_STATS_RL:                  Gv (DYNAMICS)  max=  4.07135165171732E-02
DEBUG_STATS_RL:                  Gv (DYNAMICS) mean= -7.84361289825861E-03
DEBUG_STATS_RL:                  Gv (DYNAMICS) S.D.=  1.86090017356288E-02
DEBUG_STATS_RL:               GuNm1 (DYNAMICS)  min= -3.48473911940034E-07
DEBUG_STATS_RL:               GuNm1 (DYNAMICS)  max=  1.90416017948021E-07
DEBUG_STATS_RL:               GuNm1 (DYNAMICS) mean= -3.12306477014106E-09
DEBUG_STATS_RL:               GuNm1 (DYNAMICS) S.D.=  4.09417632400134E-08
DEBUG_STATS_RL:               GvNm1 (DYNAMICS)  min= -2.15359173477236E-07
DEBUG_STATS_RL:               GvNm1 (DYNAMICS)  max=  1.82438063100004E-07
DEBUG_STATS_RL:               GvNm1 (DYNAMICS) mean= -6.53519601921780E-10
DEBUG_STATS_RL:               GvNm1 (DYNAMICS) S.D.=  4.16452354556348E-08
DEBUG_STATS_RL:               GtNm1 (DYNAMICS)  min=  0.00000000000000E+00
DEBUG_STATS_RL:               GtNm1 (DYNAMICS)  max=  0.00000000000000E+00
DEBUG_STATS_RL:               GtNm1 (DYNAMICS) mean=  0.00000000000000E+00
DEBUG_STATS_RL:               GtNm1 (DYNAMICS) S.D.=  0.00000000000000E+00
DEBUG_STATS_RL:               GsNm1 (DYNAMICS)  min=  0.00000000000000E+00
DEBUG_STATS_RL:               GsNm1 (DYNAMICS)  max=  0.00000000000000E+00
DEBUG_STATS_RL:               GsNm1 (DYNAMICS) mean=  0.00000000000000E+00
DEBUG_STATS_RL:               GsNm1 (DYNAMICS) S.D.=  0.00000000000000E+00
DEBUG_STATS_RL:    cg2d_b (SOLVE_FOR_PRESSURE)  min= -7.37985604508148E+03
DEBUG_STATS_RL:    cg2d_b (SOLVE_FOR_PRESSURE)  max=  2.18366607280435E+03
DEBUG_STATS_RL:    cg2d_b (SOLVE_FOR_PRESSURE) mean=  6.18645875268461E-13
DEBUG_STATS_RL:    cg2d_b (SOLVE_FOR_PRESSURE) S.D.=  8.98963545839594E+02
 cg2d: Sum(rhs),rhsMax =   1.34267597040605E-14  1.18778339080378E+00
DEBUG_STATS_RL:    cg2d_x (SOLVE_FOR_PRESSURE)  min= -1.13929441834640E+00
DEBUG_STATS_RL:    cg2d_x (SOLVE_FOR_PRESSURE)  max=  3.20616731162253E+00
DEBUG_STATS_RL:    cg2d_x (SOLVE_FOR_PRESSURE) mean= -4.15672442271453E-02
DEBUG_STATS_RL:    cg2d_x (SOLVE_FOR_PRESSURE) S.D.=  6.51074617232215E-01
DEBUG_STATS_RL:          Uvel (THERMODYNAMICS)  min= -4.34802359621465E-02
DEBUG_STATS_RL:          Uvel (THERMODYNAMICS)  max=  9.99752242998808E-02
DEBUG_STATS_RL:          Uvel (THERMODYNAMICS) mean=  3.48264152589957E-03
DEBUG_STATS_RL:          Uvel (THERMODYNAMICS) S.D.=  1.35343125506116E-02
DEBUG_STATS_RL:          Vvel (THERMODYNAMICS)  min= -1.33439207289254E-01
DEBUG_STATS_RL:          Vvel (THERMODYNAMICS)  max=  5.60260700766945E-02
DEBUG_STATS_RL:          Vvel (THERMODYNAMICS) mean= -4.02696574872961E-03
DEBUG_STATS_RL:          Vvel (THERMODYNAMICS) S.D.=  1.80273334212797E-02
DEBUG_STATS_RL:          Wvel (THERMODYNAMICS)  min= -2.73348162229354E-04
DEBUG_STATS_RL:          Wvel (THERMODYNAMICS)  max=  3.13596923283671E-04
DEBUG_STATS_RL:          Wvel (THERMODYNAMICS) mean=  4.73709411313520E-08
DEBUG_STATS_RL:          Wvel (THERMODYNAMICS) S.D.=  2.82661454219204E-05
DEBUG_STATS_RL:         Theta (THERMODYNAMICS)  min= -1.95943609422387E+00
DEBUG_STATS_RL:         Theta (THERMODYNAMICS)  max=  1.32225113409295E+01
DEBUG_STATS_RL:         Theta (THERMODYNAMICS) mean=  2.41480286619418E+00
DEBUG_STATS_RL:         Theta (THERMODYNAMICS) S.D.=  2.57398860030337E+00
DEBUG_STATS_RL:          Salt (THERMODYNAMICS)  min=  2.76387468555707E+01
DEBUG_STATS_RL:          Salt (THERMODYNAMICS)  max=  3.54510358217953E+01
DEBUG_STATS_RL:          Salt (THERMODYNAMICS) mean=  3.39367601804946E+01
DEBUG_STATS_RL:          Salt (THERMODYNAMICS) S.D.=  1.15334890349729E+00
DEBUG_STATS_RL:         GtNm1 (THERMODYNAMICS)  min=  0.00000000000000E+00
DEBUG_STATS_RL:         GtNm1 (THERMODYNAMICS)  max=  0.00000000000000E+00
DEBUG_STATS_RL:         GtNm1 (THERMODYNAMICS) mean=  0.00000000000000E+00
DEBUG_STATS_RL:         GtNm1 (THERMODYNAMICS) S.D.=  0.00000000000000E+00
DEBUG_STATS_RL:         GsNm1 (THERMODYNAMICS)  min=  0.00000000000000E+00
DEBUG_STATS_RL:         GsNm1 (THERMODYNAMICS)  max=  0.00000000000000E+00
DEBUG_STATS_RL:         GsNm1 (THERMODYNAMICS) mean=  0.00000000000000E+00
DEBUG_STATS_RL:         GsNm1 (THERMODYNAMICS) S.D.=  0.00000000000000E+00
(PID.TID 0000.0001)  MDS_WRITE_FIELD: it,rec,kS,kL,kH=       1     4   1   1   1 file=m_sst_step.0000000001
(PID.TID 0000.0001)  MDS_READ_FIELD: opening global file: xx_atemp.effective.0000000001.data
(PID.TID 0000.0001) EXF_SET_FLD: processing field "climsss",  file: SSS_monthly.labsea1979
(PID.TID 0000.0001) EXF_SET_FLD:   myIter, count0, count1:         8      1      2
(PID.TID 0000.0001) EXF_SET_FLD:   first, changed, fac:   F   F    0.48907103825136611
(PID.TID 0000.0001) EXF_SET_FLD: processing field "uwind",  file: u10m.labsea1979
(PID.TID 0000.0001) EXF_SET_FLD:   myIter, count0, count1:         8      1      2
(PID.TID 0000.0001) EXF_SET_FLD:   first, changed, fac:   F   F    0.48907103825136611
(PID.TID 0000.0001) EXF_SET_FLD: processing field "vwind",  file: v10m.labsea1979
(PID.TID 0000.0001) EXF_SET_FLD:   myIter, count0, count1:         8      1      2
(PID.TID 0000.0001) EXF_SET_FLD:   first, changed, fac:   F   F    0.48907103825136611
(PID.TID 0000.0001) EXF_SET_FLD: processing field "atemp",  file: tair.labsea1979
(PID.TID 0000.0001) EXF_SET_FLD:   myIter, count0, count1:         8      1      2
(PID.TID 0000.0001) EXF_SET_FLD:   first, changed, fac:   F   F    0.48907103825136611
(PID.TID 0000.0001) EXF_SET_FLD: processing field "aqh",  file: qa.labsea1979
(PID.TID 0000.0001) EXF_SET_FLD:   myIter, count0, count1:         8      1      2
(PID.TID 0000.0001) EXF_SET_FLD:   first, changed, fac:   F   F    0.48907103825136611
(PID.TID 0000.0001) EXF_SET_FLD: processing field "precip",  file: prate.labsea1979
(PID.TID 0000.0001) EXF_SET_FLD:   myIter, count0, count1:         8      1      2
(PID.TID 0000.0001) EXF_SET_FLD:   first, changed, fac:   F   F    0.48907103825136611
(PID.TID 0000.0001) EXF_SET_FLD: processing field "swdown",  file: fsh.labsea1979
(PID.TID 0000.0001) EXF_SET_FLD:   myIter, count0, count1:         8      1      2
(PID.TID 0000.0001) EXF_SET_FLD:   first, changed, fac:   F   F    0.48907103825136611
(PID.TID 0000.0001) EXF_SET_FLD: processing field "lwdown",  file: flo.labsea1979
(PID.TID 0000.0001) EXF_SET_FLD:   myIter, count0, count1:         8      1      2
(PID.TID 0000.0001) EXF_SET_FLD:   first, changed, fac:   F   F    0.48907103825136611
DEBUG_STATS_RL: Uice pre  iter (SEAICE_LSR  1)  min= -1.95687208100102E-02
DEBUG_STATS_RL: Uice pre  iter (SEAICE_LSR  1)  max=  2.56695252608154E-01
DEBUG_STATS_RL: Uice pre  iter (SEAICE_LSR  1) mean=  6.10102626008752E-02
DEBUG_STATS_RL: Uice pre  iter (SEAICE_LSR  1) S.D.=  7.26515133443026E-02
DEBUG_STATS_RL: Vice pre  iter (SEAICE_LSR  1)  min= -1.74351841639993E-01
DEBUG_STATS_RL: Vice pre  iter (SEAICE_LSR  1)  max=  6.17815719868620E-02
DEBUG_STATS_RL: Vice pre  iter (SEAICE_LSR  1) mean= -5.34332922103127E-02
DEBUG_STATS_RL: Vice pre  iter (SEAICE_LSR  1) S.D.=  5.91879685811095E-02
DEBUG_STATS_RL: Uice pre  iter (SEAICE_LSR  2)  min= -2.10631196463131E-02
DEBUG_STATS_RL: Uice pre  iter (SEAICE_LSR  2)  max=  2.47741110498678E-01
DEBUG_STATS_RL: Uice pre  iter (SEAICE_LSR  2) mean=  5.58563099525574E-02
DEBUG_STATS_RL: Uice pre  iter (SEAICE_LSR  2) S.D.=  6.83562873807025E-02
DEBUG_STATS_RL: Vice pre  iter (SEAICE_LSR  2)  min= -1.71270231909308E-01
DEBUG_STATS_RL: Vice pre  iter (SEAICE_LSR  2)  max=  5.00408736690829E-02
DEBUG_STATS_RL: Vice pre  iter (SEAICE_LSR  2) mean= -5.35471708937630E-02
DEBUG_STATS_RL: Vice pre  iter (SEAICE_LSR  2) S.D.=  5.75117440524867E-02
DEBUG_STATS_RL:                EtaN (DYNAMICS)  min= -1.16069768363258E-01
DEBUG_STATS_RL:                EtaN (DYNAMICS)  max=  3.26639972250553E-01
DEBUG_STATS_RL:                EtaN (DYNAMICS) mean= -4.23481440025525E-03
DEBUG_STATS_RL:                EtaN (DYNAMICS) S.D.=  6.63305979494085E-02
DEBUG_STATS_RL:                Uvel (DYNAMICS)  min= -4.34802359621465E-02
DEBUG_STATS_RL:                Uvel (DYNAMICS)  max=  9.99752242998808E-02
DEBUG_STATS_RL:                Uvel (DYNAMICS) mean=  3.48264152589957E-03
DEBUG_STATS_RL:                Uvel (DYNAMICS) S.D.=  1.35343125506116E-02
DEBUG_STATS_RL:                Vvel (DYNAMICS)  min= -1.33439207289254E-01
DEBUG_STATS_RL:                Vvel (DYNAMICS)  max=  5.60260700766945E-02
DEBUG_STATS_RL:                Vvel (DYNAMICS) mean= -4.02696574872961E-03
DEBUG_STATS_RL:                Vvel (DYNAMICS) S.D.=  1.80273334212797E-02
DEBUG_STATS_RL:                Wvel (DYNAMICS)  min= -2.73348162229354E-04
DEBUG_STATS_RL:                Wvel (DYNAMICS)  max=  3.13596923283671E-04
DEBUG_STATS_RL:                Wvel (DYNAMICS) mean=  4.73709411313520E-08
DEBUG_STATS_RL:                Wvel (DYNAMICS) S.D.=  2.82661454219204E-05
DEBUG_STATS_RL:               Theta (DYNAMICS)  min= -1.95943609422387E+00
DEBUG_STATS_RL:               Theta (DYNAMICS)  max=  1.32225113409295E+01
DEBUG_STATS_RL:               Theta (DYNAMICS) mean=  2.41480286619418E+00
DEBUG_STATS_RL:               Theta (DYNAMICS) S.D.=  2.57398860030337E+00
DEBUG_STATS_RL:                Salt (DYNAMICS)  min=  2.76387468555707E+01
DEBUG_STATS_RL:                Salt (DYNAMICS)  max=  3.54510358217953E+01
DEBUG_STATS_RL:                Salt (DYNAMICS) mean=  3.39367601804946E+01
DEBUG_STATS_RL:                Salt (DYNAMICS) S.D.=  1.15334890349729E+00
DEBUG_STATS_RL:                  Gu (DYNAMICS)  min= -5.98368153074020E-02
DEBUG_STATS_RL:                  Gu (DYNAMICS)  max=  9.68873121299251E-02
DEBUG_STATS_RL:                  Gu (DYNAMICS) mean=  1.30194972947503E-03
DEBUG_STATS_RL:                  Gu (DYNAMICS) S.D.=  1.61566615235326E-02
DEBUG_STATS_RL:                  Gv (DYNAMICS)  min= -1.36271217267994E-01
DEBUG_STATS_RL:                  Gv (DYNAMICS)  max=  3.83573237348583E-02
DEBUG_STATS_RL:                  Gv (DYNAMICS) mean= -7.71950831958569E-03
DEBUG_STATS_RL:                  Gv (DYNAMICS) S.D.=  1.77533563667874E-02
DEBUG_STATS_RL:               GuNm1 (DYNAMICS)  min= -3.40955168137046E-07
DEBUG_STATS_RL:               GuNm1 (DYNAMICS)  max=  1.82641400821284E-07
DEBUG_STATS_RL:               GuNm1 (DYNAMICS) mean= -2.79196714442664E-09
DEBUG_STATS_RL:               GuNm1 (DYNAMICS) S.D.=  4.07453533304239E-08
DEBUG_STATS_RL:               GvNm1 (DYNAMICS)  min= -2.14559263714299E-07
DEBUG_STATS_RL:               GvNm1 (DYNAMICS)  max=  1.94148824775153E-07
DEBUG_STATS_RL:               GvNm1 (DYNAMICS) mean= -4.04169206802268E-10
DEBUG_STATS_RL:               GvNm1 (DYNAMICS) S.D.=  4.19222729579498E-08
DEBUG_STATS_RL:               GtNm1 (DYNAMICS)  min=  0.00000000000000E+00
DEBUG_STATS_RL:               GtNm1 (DYNAMICS)  max=  0.00000000000000E+00
DEBUG_STATS_RL:               GtNm1 (DYNAMICS) mean=  0.00000000000000E+00
DEBUG_STATS_RL:               GtNm1 (DYNAMICS) S.D.=  0.00000000000000E+00
DEBUG_STATS_RL:               GsNm1 (DYNAMICS)  min=  0.00000000000000E+00
DEBUG_STATS_RL:               GsNm1 (DYNAMICS)  max=  0.00000000000000E+00
DEBUG_STATS_RL:               GsNm1 (DYNAMICS) mean=  0.00000000000000E+00
DEBUG_STATS_RL:               GsNm1 (DYNAMICS) S.D.=  0.00000000000000E+00
DEBUG_STATS_RL:    cg2d_b (SOLVE_FOR_PRESSURE)  min= -7.29975929937793E+03
DEBUG_STATS_RL:    cg2d_b (SOLVE_FOR_PRESSURE)  max=  2.19478299507054E+03
DEBUG_STATS_RL:    cg2d_b (SOLVE_FOR_PRESSURE) mean= -3.96767063648440E-13
DEBUG_STATS_RL:    cg2d_b (SOLVE_FOR_PRESSURE) S.D.=  8.94146290227710E+02
 cg2d: Sum(rhs),rhsMax =  -6.92501611609941E-15  1.17489186776824E+00
DEBUG_STATS_RL:    cg2d_x (SOLVE_FOR_PRESSURE)  min= -1.08771127617308E+00
DEBUG_STATS_RL:    cg2d_x (SOLVE_FOR_PRESSURE)  max=  3.12128519797376E+00
DEBUG_STATS_RL:    cg2d_x (SOLVE_FOR_PRESSURE) mean= -4.19588396852395E-02
DEBUG_STATS_RL:    cg2d_x (SOLVE_FOR_PRESSURE) S.D.=  6.20262122262901E-01
DEBUG_STATS_RL:          Uvel (THERMODYNAMICS)  min= -5.12375198242059E-02
DEBUG_STATS_RL:          Uvel (THERMODYNAMICS)  max=  8.84896388076339E-02
DEBUG_STATS_RL:          Uvel (THERMODYNAMICS) mean=  2.55769138538291E-03
DEBUG_STATS_RL:          Uvel (THERMODYNAMICS) S.D.=  1.29064693910456E-02
DEBUG_STATS_RL:          Vvel (THERMODYNAMICS)  min= -1.29344604199479E-01
DEBUG_STATS_RL:          Vvel (THERMODYNAMICS)  max=  4.58633296186249E-02
DEBUG_STATS_RL:          Vvel (THERMODYNAMICS) mean= -4.14107843006319E-03
DEBUG_STATS_RL:          Vvel (THERMODYNAMICS) S.D.=  1.66082836245794E-02
DEBUG_STATS_RL:          Wvel (THERMODYNAMICS)  min= -2.60848991809587E-04
DEBUG_STATS_RL:          Wvel (THERMODYNAMICS)  max=  2.85731299794369E-04
DEBUG_STATS_RL:          Wvel (THERMODYNAMICS) mean=  1.36793666178293E-07
DEBUG_STATS_RL:          Wvel (THERMODYNAMICS) S.D.=  2.70580054557619E-05
DEBUG_STATS_RL:         Theta (THERMODYNAMICS)  min= -1.95932886747261E+00
DEBUG_STATS_RL:         Theta (THERMODYNAMICS)  max=  1.32010303660582E+01
DEBUG_STATS_RL:         Theta (THERMODYNAMICS) mean=  2.41452315045422E+00
DEBUG_STATS_RL:         Theta (THERMODYNAMICS) S.D.=  2.57350774067654E+00
DEBUG_STATS_RL:          Salt (THERMODYNAMICS)  min=  2.76435505129419E+01
DEBUG_STATS_RL:          Salt (THERMODYNAMICS)  max=  3.54508660670958E+01
DEBUG_STATS_RL:          Salt (THERMODYNAMICS) mean=  3.39367749828872E+01
DEBUG_STATS_RL:          Salt (THERMODYNAMICS) S.D.=  1.15309738582237E+00
DEBUG_STATS_RL:         GtNm1 (THERMODYNAMICS)  min=  0.00000000000000E+00
DEBUG_STATS_RL:         GtNm1 (THERMODYNAMICS)  max=  0.00000000000000E+00
DEBUG_STATS_RL:         GtNm1 (THERMODYNAMICS) mean=  0.00000000000000E+00
DEBUG_STATS_RL:         GtNm1 (THERMODYNAMICS) S.D.=  0.00000000000000E+00
DEBUG_STATS_RL:         GsNm1 (THERMODYNAMICS)  min=  0.00000000000000E+00
DEBUG_STATS_RL:         GsNm1 (THERMODYNAMICS)  max=  0.00000000000000E+00
DEBUG_STATS_RL:         GsNm1 (THERMODYNAMICS) mean=  0.00000000000000E+00
DEBUG_STATS_RL:         GsNm1 (THERMODYNAMICS) S.D.=  0.00000000000000E+00
(PID.TID 0000.0001) Did not write pickup because writePickupAtEnd = FALSE
(PID.TID 0000.0001)  MDS_WRITE_FIELD: it,rec,kS,kL,kH=       1     5   1   1   1 file=m_sst_step.0000000001
(PID.TID 0000.0001) gencost # 03
(PID.TID 0000.0001)  MDS_READ_FIELD: opening global file: sigma_sst.bin
(PID.TID 0000.0001)  MDS_READ_FIELD: opening global file: m_sst_step.0000000001.data
(PID.TID 0000.0001)  MDS_READ_FIELD: opening global file: labsea_SST_fields_t5
(PID.TID 0000.0001)  MDS_WRITE_FIELD: it,rec,kS,kL,kH=       1     1   1   1   1 file=misfit_sst
(PID.TID 0000.0001)  MDS_READ_FIELD: opening global file: sigma_sst.bin
(PID.TID 0000.0001)  MDS_READ_FIELD: opening global file: m_sst_step.0000000001.data
(PID.TID 0000.0001)  MDS_READ_FIELD: opening global file: labsea_SST_fields_t5
(PID.TID 0000.0001)  MDS_WRITE_FIELD: it,rec,kS,kL,kH=       1     2   1   1   1 file=misfit_sst
(PID.TID 0000.0001)  MDS_READ_FIELD: opening global file: sigma_sst.bin
(PID.TID 0000.0001)  MDS_READ_FIELD: opening global file: m_sst_step.0000000001.data
(PID.TID 0000.0001)  MDS_READ_FIELD: opening global file: labsea_SST_fields_t5
(PID.TID 0000.0001)  MDS_WRITE_FIELD: it,rec,kS,kL,kH=       1     3   1   1   1 file=misfit_sst
(PID.TID 0000.0001)  MDS_READ_FIELD: opening global file: sigma_sst.bin
(PID.TID 0000.0001)  MDS_READ_FIELD: opening global file: m_sst_step.0000000001.data
(PID.TID 0000.0001)  MDS_READ_FIELD: opening global file: labsea_SST_fields_t5
(PID.TID 0000.0001)  MDS_WRITE_FIELD: it,rec,kS,kL,kH=       1     4   1   1   1 file=misfit_sst
(PID.TID 0000.0001)  MDS_READ_FIELD: opening global file: sigma_sst.bin
(PID.TID 0000.0001)  MDS_READ_FIELD: opening global file: m_sst_step.0000000001.data
(PID.TID 0000.0001)  MDS_READ_FIELD: opening global file: labsea_SST_fields_t5
(PID.TID 0000.0001)  MDS_WRITE_FIELD: it,rec,kS,kL,kH=       1     5   1   1   1 file=misfit_sst
(PID.TID 0000.0001)  MDS_READ_FIELD: opening global file: xx_atemp.0000000001.data
(PID.TID 0000.0001)  MDS_READ_FIELD: opening global file: xx_atemp.0000000001.data
(PID.TID 0000.0001)  MDS_READ_FIELD: opening global file: xx_atemp.0000000001.data
(PID.TID 0000.0001)  MDS_READ_FIELD: opening global file: xx_atemp.0000000001.data
(PID.TID 0000.0001)  MDS_READ_FIELD: opening global file: xx_atemp.0000000001.data
(PID.TID 0000.0001)  MDS_READ_FIELD: opening global file: xx_atemp.0000000001.data
(PID.TID 0000.0001)  MDS_READ_FIELD: opening global file: xx_atemp.0000000001.data
(PID.TID 0000.0001)  MDS_READ_FIELD: opening global file: xx_atemp.0000000001.data
(PID.TID 0000.0001)  MDS_READ_FIELD: opening global file: xx_atemp.0000000001.data
(PID.TID 0000.0001)  MDS_READ_FIELD: opening global file: xx_atemp.0000000001.data
(PID.TID 0000.0001)  MDS_READ_FIELD: opening global file: xx_atemp.0000000001.data
 --> f_ice     = 0.000000000000000D+00
 --> f_smrarea = 0.000000000000000D+00
 --> f_smrarea = 0.000000000000000D+00
 --> f_smrarea = 0.000000000000000D+00
(PID.TID 0000.0001)  --> f_gencost = 0.527453128215446D+04 3
(PID.TID 0000.0001)  --> f_gentim2d = 0.243374980010000D+03 1
(PID.TID 0000.0001)  --> fc               = 0.527453128215446D+04
(PID.TID 0000.0001)  cost_Final: final cost function =  0.527453128215446D+04
(PID.TID 0000.0001) 
(PID.TID 0000.0001)              cost function evaluation finished.
(PID.TID 0000.0001) 
(PID.TID 0000.0001)   early fc =  0.000000000000000D+00
(PID.TID 0000.0001)   local fc =  0.527453128215446D+04
(PID.TID 0000.0001)  global fc =  0.527453128215446D+04
(PID.TID 0000.0001) grdchk perturb(-)fc: fcpertminus =  5.27453128215446E+03
(PID.TID 0000.0001)  MDS_READ_FIELD: opening global file: xx_atemp.0000000001.data
(PID.TID 0000.0001)  MDS_WRITE_FIELD: it,rec,kS,kL,kH=       1     1   1   1   1 file=xx_atemp.0000000001
grad-res -------------------------------
 grad-res     0    2    7    8    1    1    1    1   5.27453128215E+03  5.27453128215E+03  5.27453128215E+03
 grad-res     0    2    2   76    0    1    1    1   0.00000000000E+00  0.00000000000E+00  0.00000000000E+00
(PID.TID 0000.0001)  ADM  ref_cost_function      =  5.27453128215446E+03
(PID.TID 0000.0001)  ADM  adjoint_gradient       =  0.00000000000000E+00
(PID.TID 0000.0001)  ADM  finite-diff_grad       =  0.00000000000000E+00
(PID.TID 0000.0001) ====== End of gradient-check number   2 (ierr=  0) =======
(PID.TID 0000.0001) ====== Starts gradient-check number   3 (=ichknum) =======
 ph-test icomp, ncvarcomp, ichknum           77        1650           3
 ph-grd _loc: bi, bj, icomptest, ichknum            1           1          76           3
 ph-grd -->hit<--            8           8           1           1
(PID.TID 0000.0001) grdchk pos: i,j,k=    8    8    1 ; bi,bj=   1   1 ; iobc=  1 ; rec=   1
(PID.TID 0000.0001)  MDS_READ_FIELD: opening global file: adxx_atemp.0000000001.data
(PID.TID 0000.0001)  MDS_READ_FIELD: opening global file: xx_atemp.0000000001.data
(PID.TID 0000.0001)  MDS_WRITE_FIELD: it,rec,kS,kL,kH=       1     1   1   1   1 file=xx_atemp.0000000001
(PID.TID 0000.0001)  MDS_READ_META: opening file: pickup.0000000005.meta
(PID.TID 0000.0001)  nRecords = 141 ; filePrec =  64 ; fileIter =         5
(PID.TID 0000.0001)     nDims =   2 , dims:
(PID.TID 0000.0001)    1:  20   1  20
(PID.TID 0000.0001)    2:  16   1  16
(PID.TID 0000.0001)     nFlds =   9 , nFl3D =   6 , fields:
(PID.TID 0000.0001)  >Uvel    < >Vvel    < >Theta   < >Salt    < >GuNm1   < >GvNm1   < >EtaN    < >dEtaHdt < >EtaH    <
(PID.TID 0000.0001) missingVal=  1.00000000000000E+00 ; nTimRec =   1 , timeList:
(PID.TID 0000.0001)   1.800000000000E+04
(PID.TID 0000.0001) READ_MFLDS_3D_RL: read field: "Uvel    ", #   1 in fldList, rec=   1
(PID.TID 0000.0001)  MDS_READ_FIELD: opening global file: pickup.0000000005.data
(PID.TID 0000.0001) READ_MFLDS_3D_RL: read field: "Vvel    ", #   2 in fldList, rec=   2
(PID.TID 0000.0001)  MDS_READ_FIELD: opening global file: pickup.0000000005.data
(PID.TID 0000.0001) READ_MFLDS_3D_RL: read field: "Theta   ", #   3 in fldList, rec=   3
(PID.TID 0000.0001)  MDS_READ_FIELD: opening global file: pickup.0000000005.data
(PID.TID 0000.0001) READ_MFLDS_3D_RL: read field: "Salt    ", #   4 in fldList, rec=   4
(PID.TID 0000.0001)  MDS_READ_FIELD: opening global file: pickup.0000000005.data
(PID.TID 0000.0001) READ_MFLDS_3D_RL: read field: "GuNm1   ", #   5 in fldList, rec=   5
(PID.TID 0000.0001)  MDS_READ_FIELD: opening global file: pickup.0000000005.data
(PID.TID 0000.0001) READ_MFLDS_3D_RL: read field: "GvNm1   ", #   6 in fldList, rec=   6
(PID.TID 0000.0001)  MDS_READ_FIELD: opening global file: pickup.0000000005.data
(PID.TID 0000.0001) READ_MFLDS_3D_RL: read field: "EtaN    ", #   7 in fldList, rec= 139
(PID.TID 0000.0001)  MDS_READ_FIELD: opening global file: pickup.0000000005.data
(PID.TID 0000.0001) READ_MFLDS_CHECK: - normal end ; reset MFLDS file-name: pickup.0000000005
(PID.TID 0000.0001)  MDS_READ_FIELD: opening global file: pickup_cd.0000000005.data
(PID.TID 0000.0001)  MDS_READ_FIELD: opening global file: pickup_cd.0000000005.data
(PID.TID 0000.0001)  MDS_READ_FIELD: opening global file: pickup_cd.0000000005.data
(PID.TID 0000.0001)  MDS_READ_FIELD: opening global file: pickup_cd.0000000005.data
(PID.TID 0000.0001)  MDS_READ_FIELD: opening global file: pickup_cd.0000000005.data
(PID.TID 0000.0001)  MDS_READ_META: opening file: pickup_seaice.0000000005.meta
(PID.TID 0000.0001)  nRecords =  13 ; filePrec =  64 ; fileIter =         5
(PID.TID 0000.0001)     nDims =   2 , dims:
(PID.TID 0000.0001)    1:  20   1  20
(PID.TID 0000.0001)    2:  16   1  16
(PID.TID 0000.0001)     nFlds =   7 , nFl3D =   1 , fields:
(PID.TID 0000.0001)  >siTICES < >siAREA  < >siHEFF  < >siHSNOW < >siHSALT < >siUICE  < >siVICE  <
(PID.TID 0000.0001) missingVal=  1.00000000000000E+00 ; nTimRec =   1 , timeList:
(PID.TID 0000.0001)   1.800000000000E+04
(PID.TID 0000.0001) READ_MFLDS_3D_RL: read field: "siTICES ", #   1 in fldList, rec=   1
(PID.TID 0000.0001)  MDS_READ_FIELD: opening global file: pickup_seaice.0000000005.data
(PID.TID 0000.0001) READ_MFLDS_3D_RL: read field: "siAREA  ", #   2 in fldList, rec=   8
(PID.TID 0000.0001)  MDS_READ_FIELD: opening global file: pickup_seaice.0000000005.data
(PID.TID 0000.0001) READ_MFLDS_3D_RL: read field: "siHEFF  ", #   3 in fldList, rec=   9
(PID.TID 0000.0001)  MDS_READ_FIELD: opening global file: pickup_seaice.0000000005.data
(PID.TID 0000.0001) READ_MFLDS_3D_RL: read field: "siHSNOW ", #   4 in fldList, rec=  10
(PID.TID 0000.0001)  MDS_READ_FIELD: opening global file: pickup_seaice.0000000005.data
(PID.TID 0000.0001) READ_MFLDS_3D_RL: read field: "siHSALT ", #   5 in fldList, rec=  11
(PID.TID 0000.0001)  MDS_READ_FIELD: opening global file: pickup_seaice.0000000005.data
(PID.TID 0000.0001) READ_MFLDS_3D_RL: read field: "siUICE  ", #   6 in fldList, rec=  12
(PID.TID 0000.0001)  MDS_READ_FIELD: opening global file: pickup_seaice.0000000005.data
(PID.TID 0000.0001) READ_MFLDS_3D_RL: read field: "siVICE  ", #   7 in fldList, rec=  13
(PID.TID 0000.0001)  MDS_READ_FIELD: opening global file: pickup_seaice.0000000005.data
(PID.TID 0000.0001) READ_MFLDS_CHECK: - normal end ; reset MFLDS file-name: pickup_seaice.0000000005
(PID.TID 0000.0001) CTRL_INIT_REC: Getting record indices for xx_atemp
(PID.TID 0000.0001) CTRL_INIT_REC: Record indices for xx_atemp:
(PID.TID 0000.0001) CTRL_INIT_REC: startrec =          6, endrec =         11
(PID.TID 0000.0001)  MDS_READ_FIELD: opening global file: xx_atemp.0000000001.data
(PID.TID 0000.0001)  MDS_WRITE_FIELD: it,rec,kS,kL,kH=       1     1   1   1   1 file=xx_atemp.effective.0000000001
(PID.TID 0000.0001)  MDS_READ_FIELD: opening global file: xx_atemp.0000000001.data
(PID.TID 0000.0001)  MDS_WRITE_FIELD: it,rec,kS,kL,kH=       1     2   1   1   1 file=xx_atemp.effective.0000000001
(PID.TID 0000.0001)  MDS_READ_FIELD: opening global file: xx_atemp.0000000001.data
(PID.TID 0000.0001)  MDS_WRITE_FIELD: it,rec,kS,kL,kH=       1     3   1   1   1 file=xx_atemp.effective.0000000001
(PID.TID 0000.0001)  MDS_READ_FIELD: opening global file: xx_atemp.0000000001.data
(PID.TID 0000.0001)  MDS_WRITE_FIELD: it,rec,kS,kL,kH=       1     4   1   1   1 file=xx_atemp.effective.0000000001
(PID.TID 0000.0001)  MDS_READ_FIELD: opening global file: xx_atemp.0000000001.data
(PID.TID 0000.0001)  MDS_WRITE_FIELD: it,rec,kS,kL,kH=       1     5   1   1   1 file=xx_atemp.effective.0000000001
(PID.TID 0000.0001)  MDS_READ_FIELD: opening global file: xx_atemp.0000000001.data
(PID.TID 0000.0001)  MDS_WRITE_FIELD: it,rec,kS,kL,kH=       1     6   1   1   1 file=xx_atemp.effective.0000000001
(PID.TID 0000.0001)  MDS_READ_FIELD: opening global file: xx_atemp.effective.0000000001.data
(PID.TID 0000.0001)  MDS_READ_FIELD: opening global file: ones_64b.bin
(PID.TID 0000.0001)  MDS_WRITE_FIELD: it,rec,kS,kL,kH=       1     1   1   1   1 file=xx_atemp.effective.0000000001
(PID.TID 0000.0001)  MDS_READ_FIELD: opening global file: xx_atemp.effective.0000000001.data
(PID.TID 0000.0001)  MDS_READ_FIELD: opening global file: ones_64b.bin
(PID.TID 0000.0001)  MDS_WRITE_FIELD: it,rec,kS,kL,kH=       1     2   1   1   1 file=xx_atemp.effective.0000000001
(PID.TID 0000.0001)  MDS_READ_FIELD: opening global file: xx_atemp.effective.0000000001.data
(PID.TID 0000.0001)  MDS_READ_FIELD: opening global file: ones_64b.bin
(PID.TID 0000.0001)  MDS_WRITE_FIELD: it,rec,kS,kL,kH=       1     3   1   1   1 file=xx_atemp.effective.0000000001
(PID.TID 0000.0001)  MDS_READ_FIELD: opening global file: xx_atemp.effective.0000000001.data
(PID.TID 0000.0001)  MDS_READ_FIELD: opening global file: ones_64b.bin
(PID.TID 0000.0001)  MDS_WRITE_FIELD: it,rec,kS,kL,kH=       1     4   1   1   1 file=xx_atemp.effective.0000000001
(PID.TID 0000.0001)  MDS_READ_FIELD: opening global file: xx_atemp.effective.0000000001.data
(PID.TID 0000.0001)  MDS_READ_FIELD: opening global file: ones_64b.bin
(PID.TID 0000.0001)  MDS_WRITE_FIELD: it,rec,kS,kL,kH=       1     5   1   1   1 file=xx_atemp.effective.0000000001
(PID.TID 0000.0001)  MDS_READ_FIELD: opening global file: xx_atemp.effective.0000000001.data
(PID.TID 0000.0001)  MDS_READ_FIELD: opening global file: ones_64b.bin
(PID.TID 0000.0001)  MDS_WRITE_FIELD: it,rec,kS,kL,kH=       1     6   1   1   1 file=xx_atemp.effective.0000000001
(PID.TID 0000.0001) // =======================================================
(PID.TID 0000.0001) // Model current state
(PID.TID 0000.0001) // =======================================================
(PID.TID 0000.0001) 
(PID.TID 0000.0001)  MDS_WRITE_FIELD: it,rec,kS,kL,kH=       1     1   1   1   1 file=m_sst_step.0000000001
(PID.TID 0000.0001)  MDS_READ_FIELD: opening global file: xx_atemp.effective.0000000001.data
(PID.TID 0000.0001)  MDS_READ_FIELD: opening global file: xx_atemp.effective.0000000001.data
(PID.TID 0000.0001) EXF_SET_FLD: processing field "climsss",  file: SSS_monthly.labsea1979
(PID.TID 0000.0001) EXF_SET_FLD:   myIter, count0, count1:         5      1      2
(PID.TID 0000.0001) EXF_SET_FLD:   first, changed, fac:   T   F    0.49316939890710387
(PID.TID 0000.0001) EXF_SET_FLD: field "climsss", it=         5, loading rec=     1
(PID.TID 0000.0001) EXF_SET_FLD:   from file: "SSS_monthly.labsea1979"
(PID.TID 0000.0001)  MDS_READ_FIELD: opening global file: SSS_monthly.labsea1979
(PID.TID 0000.0001) EXF_SET_FLD: field "climsss", it=         5, loading rec=     2
(PID.TID 0000.0001) EXF_SET_FLD:   from file: "SSS_monthly.labsea1979"
(PID.TID 0000.0001)  MDS_READ_FIELD: opening global file: SSS_monthly.labsea1979
(PID.TID 0000.0001) EXF_SET_FLD: processing field "uwind",  file: u10m.labsea1979
(PID.TID 0000.0001) EXF_SET_FLD:   myIter, count0, count1:         5      1      2
(PID.TID 0000.0001) EXF_SET_FLD:   first, changed, fac:   T   F    0.49316939890710387
(PID.TID 0000.0001) EXF_SET_FLD: field "uwind", it=         5, loading rec=     1
(PID.TID 0000.0001) EXF_SET_FLD:   from file: "u10m.labsea1979"
(PID.TID 0000.0001)  MDS_READ_FIELD: opening global file: u10m.labsea1979
(PID.TID 0000.0001) EXF_SET_FLD: field "uwind", it=         5, loading rec=     2
(PID.TID 0000.0001) EXF_SET_FLD:   from file: "u10m.labsea1979"
(PID.TID 0000.0001)  MDS_READ_FIELD: opening global file: u10m.labsea1979
(PID.TID 0000.0001) EXF_SET_FLD: processing field "vwind",  file: v10m.labsea1979
(PID.TID 0000.0001) EXF_SET_FLD:   myIter, count0, count1:         5      1      2
(PID.TID 0000.0001) EXF_SET_FLD:   first, changed, fac:   T   F    0.49316939890710387
(PID.TID 0000.0001) EXF_SET_FLD: field "vwind", it=         5, loading rec=     1
(PID.TID 0000.0001) EXF_SET_FLD:   from file: "v10m.labsea1979"
(PID.TID 0000.0001)  MDS_READ_FIELD: opening global file: v10m.labsea1979
(PID.TID 0000.0001) EXF_SET_FLD: field "vwind", it=         5, loading rec=     2
(PID.TID 0000.0001) EXF_SET_FLD:   from file: "v10m.labsea1979"
(PID.TID 0000.0001)  MDS_READ_FIELD: opening global file: v10m.labsea1979
(PID.TID 0000.0001) EXF_SET_FLD: processing field "atemp",  file: tair.labsea1979
(PID.TID 0000.0001) EXF_SET_FLD:   myIter, count0, count1:         5      1      2
(PID.TID 0000.0001) EXF_SET_FLD:   first, changed, fac:   T   F    0.49316939890710387
(PID.TID 0000.0001) EXF_SET_FLD: field "atemp", it=         5, loading rec=     1
(PID.TID 0000.0001) EXF_SET_FLD:   from file: "tair.labsea1979"
(PID.TID 0000.0001)  MDS_READ_FIELD: opening global file: tair.labsea1979
(PID.TID 0000.0001) EXF_SET_FLD: field "atemp", it=         5, loading rec=     2
(PID.TID 0000.0001) EXF_SET_FLD:   from file: "tair.labsea1979"
(PID.TID 0000.0001)  MDS_READ_FIELD: opening global file: tair.labsea1979
(PID.TID 0000.0001) EXF_SET_FLD: processing field "aqh",  file: qa.labsea1979
(PID.TID 0000.0001) EXF_SET_FLD:   myIter, count0, count1:         5      1      2
(PID.TID 0000.0001) EXF_SET_FLD:   first, changed, fac:   T   F    0.49316939890710387
(PID.TID 0000.0001) EXF_SET_FLD: field "aqh", it=         5, loading rec=     1
(PID.TID 0000.0001) EXF_SET_FLD:   from file: "qa.labsea1979"
(PID.TID 0000.0001)  MDS_READ_FIELD: opening global file: qa.labsea1979
(PID.TID 0000.0001) EXF_SET_FLD: field "aqh", it=         5, loading rec=     2
(PID.TID 0000.0001) EXF_SET_FLD:   from file: "qa.labsea1979"
(PID.TID 0000.0001)  MDS_READ_FIELD: opening global file: qa.labsea1979
(PID.TID 0000.0001) EXF_SET_FLD: processing field "precip",  file: prate.labsea1979
(PID.TID 0000.0001) EXF_SET_FLD:   myIter, count0, count1:         5      1      2
(PID.TID 0000.0001) EXF_SET_FLD:   first, changed, fac:   T   F    0.49316939890710387
(PID.TID 0000.0001) EXF_SET_FLD: field "precip", it=         5, loading rec=     1
(PID.TID 0000.0001) EXF_SET_FLD:   from file: "prate.labsea1979"
(PID.TID 0000.0001)  MDS_READ_FIELD: opening global file: prate.labsea1979
(PID.TID 0000.0001) EXF_SET_FLD: field "precip", it=         5, loading rec=     2
(PID.TID 0000.0001) EXF_SET_FLD:   from file: "prate.labsea1979"
(PID.TID 0000.0001)  MDS_READ_FIELD: opening global file: prate.labsea1979
(PID.TID 0000.0001) EXF_SET_FLD: processing field "swdown",  file: fsh.labsea1979
(PID.TID 0000.0001) EXF_SET_FLD:   myIter, count0, count1:         5      1      2
(PID.TID 0000.0001) EXF_SET_FLD:   first, changed, fac:   T   F    0.49316939890710387
(PID.TID 0000.0001) EXF_SET_FLD: field "swdown", it=         5, loading rec=     1
(PID.TID 0000.0001) EXF_SET_FLD:   from file: "fsh.labsea1979"
(PID.TID 0000.0001)  MDS_READ_FIELD: opening global file: fsh.labsea1979
(PID.TID 0000.0001) EXF_SET_FLD: field "swdown", it=         5, loading rec=     2
(PID.TID 0000.0001) EXF_SET_FLD:   from file: "fsh.labsea1979"
(PID.TID 0000.0001)  MDS_READ_FIELD: opening global file: fsh.labsea1979
(PID.TID 0000.0001) EXF_SET_FLD: processing field "lwdown",  file: flo.labsea1979
(PID.TID 0000.0001) EXF_SET_FLD:   myIter, count0, count1:         5      1      2
(PID.TID 0000.0001) EXF_SET_FLD:   first, changed, fac:   T   F    0.49316939890710387
(PID.TID 0000.0001) EXF_SET_FLD: field "lwdown", it=         5, loading rec=     1
(PID.TID 0000.0001) EXF_SET_FLD:   from file: "flo.labsea1979"
(PID.TID 0000.0001)  MDS_READ_FIELD: opening global file: flo.labsea1979
(PID.TID 0000.0001) EXF_SET_FLD: field "lwdown", it=         5, loading rec=     2
(PID.TID 0000.0001) EXF_SET_FLD:   from file: "flo.labsea1979"
(PID.TID 0000.0001)  MDS_READ_FIELD: opening global file: flo.labsea1979
DEBUG_STATS_RL: Uice pre  iter (SEAICE_LSR  1)  min= -9.02121933428159E-03
DEBUG_STATS_RL: Uice pre  iter (SEAICE_LSR  1)  max=  2.19445684647109E-01
DEBUG_STATS_RL: Uice pre  iter (SEAICE_LSR  1) mean=  6.96639305502532E-02
DEBUG_STATS_RL: Uice pre  iter (SEAICE_LSR  1) S.D.=  7.25590715280224E-02
DEBUG_STATS_RL: Vice pre  iter (SEAICE_LSR  1)  min= -1.73112057819563E-01
DEBUG_STATS_RL: Vice pre  iter (SEAICE_LSR  1)  max=  1.05174802576008E-01
DEBUG_STATS_RL: Vice pre  iter (SEAICE_LSR  1) mean= -3.44957645455127E-02
DEBUG_STATS_RL: Vice pre  iter (SEAICE_LSR  1) S.D.=  5.17027322842165E-02
DEBUG_STATS_RL: Uice pre  iter (SEAICE_LSR  2)  min= -9.93295031152210E-03
DEBUG_STATS_RL: Uice pre  iter (SEAICE_LSR  2)  max=  2.37649472779152E-01
DEBUG_STATS_RL: Uice pre  iter (SEAICE_LSR  2) mean=  7.08960993522900E-02
DEBUG_STATS_RL: Uice pre  iter (SEAICE_LSR  2) S.D.=  7.51814019583860E-02
DEBUG_STATS_RL: Vice pre  iter (SEAICE_LSR  2)  min= -1.73458139241626E-01
DEBUG_STATS_RL: Vice pre  iter (SEAICE_LSR  2)  max=  1.02503634704982E-01
DEBUG_STATS_RL: Vice pre  iter (SEAICE_LSR  2) mean= -3.89801386768760E-02
DEBUG_STATS_RL: Vice pre  iter (SEAICE_LSR  2) S.D.=  5.44920749395038E-02
DEBUG_STATS_RL:                EtaN (DYNAMICS)  min= -1.29709672821213E-01
DEBUG_STATS_RL:                EtaN (DYNAMICS)  max=  3.25626876398477E-01
DEBUG_STATS_RL:                EtaN (DYNAMICS) mean= -3.00841690122536E-03
DEBUG_STATS_RL:                EtaN (DYNAMICS) S.D.=  7.54180814594036E-02
DEBUG_STATS_RL:                Uvel (DYNAMICS)  min= -3.64296443204224E-02
DEBUG_STATS_RL:                Uvel (DYNAMICS)  max=  8.91662112566489E-02
DEBUG_STATS_RL:                Uvel (DYNAMICS) mean=  5.18186102505262E-03
DEBUG_STATS_RL:                Uvel (DYNAMICS) S.D.=  1.36791834404111E-02
DEBUG_STATS_RL:                Vvel (DYNAMICS)  min= -8.48427067731397E-02
DEBUG_STATS_RL:                Vvel (DYNAMICS)  max=  7.15709637633448E-02
DEBUG_STATS_RL:                Vvel (DYNAMICS) mean= -6.25663991250223E-04
DEBUG_STATS_RL:                Vvel (DYNAMICS) S.D.=  1.65568599029307E-02
DEBUG_STATS_RL:                Wvel (DYNAMICS)  min= -2.02998023749463E-04
DEBUG_STATS_RL:                Wvel (DYNAMICS)  max=  3.07634744219620E-04
DEBUG_STATS_RL:                Wvel (DYNAMICS) mean= -2.14485636605179E-07
DEBUG_STATS_RL:                Wvel (DYNAMICS) S.D.=  2.56514188295233E-05
DEBUG_STATS_RL:               Theta (DYNAMICS)  min= -1.95891909892377E+00
DEBUG_STATS_RL:               Theta (DYNAMICS)  max=  1.32575107273067E+01
DEBUG_STATS_RL:               Theta (DYNAMICS) mean=  2.41560973729717E+00
DEBUG_STATS_RL:               Theta (DYNAMICS) S.D.=  2.57506629522921E+00
DEBUG_STATS_RL:                Salt (DYNAMICS)  min=  2.76241835718781E+01
DEBUG_STATS_RL:                Salt (DYNAMICS)  max=  3.54512322319690E+01
DEBUG_STATS_RL:                Salt (DYNAMICS) mean=  3.39367610972827E+01
DEBUG_STATS_RL:                Salt (DYNAMICS) S.D.=  1.15400523729775E+00
DEBUG_STATS_RL:                  Gu (DYNAMICS)  min= -3.40661284878781E-02
DEBUG_STATS_RL:                  Gu (DYNAMICS)  max=  1.09592409505601E-01
DEBUG_STATS_RL:                  Gu (DYNAMICS) mean=  3.43340148231612E-03
DEBUG_STATS_RL:                  Gu (DYNAMICS) S.D.=  1.52106643070904E-02
DEBUG_STATS_RL:                  Gv (DYNAMICS)  min= -1.19743996000496E-01
DEBUG_STATS_RL:                  Gv (DYNAMICS)  max=  5.31755908727337E-02
DEBUG_STATS_RL:                  Gv (DYNAMICS) mean= -6.43607759844673E-03
DEBUG_STATS_RL:                  Gv (DYNAMICS) S.D.=  1.74595586593132E-02
DEBUG_STATS_RL:               GuNm1 (DYNAMICS)  min= -2.94347299884301E-07
DEBUG_STATS_RL:               GuNm1 (DYNAMICS)  max=  1.78770581560375E-07
DEBUG_STATS_RL:               GuNm1 (DYNAMICS) mean= -3.06311171945198E-09
DEBUG_STATS_RL:               GuNm1 (DYNAMICS) S.D.=  4.19614199163276E-08
DEBUG_STATS_RL:               GvNm1 (DYNAMICS)  min= -1.82273635415880E-07
DEBUG_STATS_RL:               GvNm1 (DYNAMICS)  max=  1.24273330978528E-07
DEBUG_STATS_RL:               GvNm1 (DYNAMICS) mean= -1.05360009952046E-09
DEBUG_STATS_RL:               GvNm1 (DYNAMICS) S.D.=  3.58773704868012E-08
DEBUG_STATS_RL:               GtNm1 (DYNAMICS)  min=  0.00000000000000E+00
DEBUG_STATS_RL:               GtNm1 (DYNAMICS)  max=  0.00000000000000E+00
DEBUG_STATS_RL:               GtNm1 (DYNAMICS) mean=  0.00000000000000E+00
DEBUG_STATS_RL:               GtNm1 (DYNAMICS) S.D.=  0.00000000000000E+00
DEBUG_STATS_RL:               GsNm1 (DYNAMICS)  min=  0.00000000000000E+00
DEBUG_STATS_RL:               GsNm1 (DYNAMICS)  max=  0.00000000000000E+00
DEBUG_STATS_RL:               GsNm1 (DYNAMICS) mean=  0.00000000000000E+00
DEBUG_STATS_RL:               GsNm1 (DYNAMICS) S.D.=  0.00000000000000E+00
(PID.TID 0000.0001) SOLVE_FOR_PRESSURE: putPmEinXvector =    F
DEBUG_STATS_RL:    cg2d_b (SOLVE_FOR_PRESSURE)  min= -7.45833771571459E+03
DEBUG_STATS_RL:    cg2d_b (SOLVE_FOR_PRESSURE)  max=  2.17494903027769E+03
DEBUG_STATS_RL:    cg2d_b (SOLVE_FOR_PRESSURE) mean=  4.18935997004155E-13
DEBUG_STATS_RL:    cg2d_b (SOLVE_FOR_PRESSURE) S.D.=  9.06377010650268E+02
 cg2d: Sum(rhs),rhsMax =   8.29197821516914E-15  1.20041496847834E+00
DEBUG_STATS_RL:    cg2d_x (SOLVE_FOR_PRESSURE)  min= -1.23196163368130E+00
DEBUG_STATS_RL:    cg2d_x (SOLVE_FOR_PRESSURE)  max=  3.23727429689848E+00
DEBUG_STATS_RL:    cg2d_x (SOLVE_FOR_PRESSURE) mean= -3.45194761148230E-02
DEBUG_STATS_RL:    cg2d_x (SOLVE_FOR_PRESSURE) S.D.=  7.10912240392561E-01
DEBUG_STATS_RL:          Uvel (THERMODYNAMICS)  min= -3.59096386964102E-02
DEBUG_STATS_RL:          Uvel (THERMODYNAMICS)  max=  1.01288605318195E-01
DEBUG_STATS_RL:          Uvel (THERMODYNAMICS) mean=  5.06442107691443E-03
DEBUG_STATS_RL:          Uvel (THERMODYNAMICS) S.D.=  1.40087544095653E-02
DEBUG_STATS_RL:          Vvel (THERMODYNAMICS)  min= -1.10756263988798E-01
DEBUG_STATS_RL:          Vvel (THERMODYNAMICS)  max=  7.07208418107748E-02
DEBUG_STATS_RL:          Vvel (THERMODYNAMICS) mean= -2.17557054828444E-03
DEBUG_STATS_RL:          Vvel (THERMODYNAMICS) S.D.=  1.80912833066385E-02
DEBUG_STATS_RL:          Wvel (THERMODYNAMICS)  min= -2.43811460414301E-04
DEBUG_STATS_RL:          Wvel (THERMODYNAMICS)  max=  3.28816353261790E-04
DEBUG_STATS_RL:          Wvel (THERMODYNAMICS) mean= -1.37923543342930E-07
DEBUG_STATS_RL:          Wvel (THERMODYNAMICS) S.D.=  2.75149300864468E-05
DEBUG_STATS_RL:         Theta (THERMODYNAMICS)  min= -1.96015217723737E+00
DEBUG_STATS_RL:         Theta (THERMODYNAMICS)  max=  1.32512671183370E+01
DEBUG_STATS_RL:         Theta (THERMODYNAMICS) mean=  2.41531606071968E+00
DEBUG_STATS_RL:         Theta (THERMODYNAMICS) S.D.=  2.57483151675911E+00
DEBUG_STATS_RL:          Salt (THERMODYNAMICS)  min=  2.76290307531745E+01
DEBUG_STATS_RL:          Salt (THERMODYNAMICS)  max=  3.54512307060718E+01
DEBUG_STATS_RL:          Salt (THERMODYNAMICS) mean=  3.39367446276238E+01
DEBUG_STATS_RL:          Salt (THERMODYNAMICS) S.D.=  1.15382313156805E+00
DEBUG_STATS_RL:         GtNm1 (THERMODYNAMICS)  min=  0.00000000000000E+00
DEBUG_STATS_RL:         GtNm1 (THERMODYNAMICS)  max=  0.00000000000000E+00
DEBUG_STATS_RL:         GtNm1 (THERMODYNAMICS) mean=  0.00000000000000E+00
DEBUG_STATS_RL:         GtNm1 (THERMODYNAMICS) S.D.=  0.00000000000000E+00
DEBUG_STATS_RL:         GsNm1 (THERMODYNAMICS)  min=  0.00000000000000E+00
DEBUG_STATS_RL:         GsNm1 (THERMODYNAMICS)  max=  0.00000000000000E+00
DEBUG_STATS_RL:         GsNm1 (THERMODYNAMICS) mean=  0.00000000000000E+00
DEBUG_STATS_RL:         GsNm1 (THERMODYNAMICS) S.D.=  0.00000000000000E+00
(PID.TID 0000.0001)  MDS_WRITE_FIELD: it,rec,kS,kL,kH=       1     2   1   1   1 file=m_sst_step.0000000001
(PID.TID 0000.0001)  MDS_READ_FIELD: opening global file: xx_atemp.effective.0000000001.data
(PID.TID 0000.0001) EXF_SET_FLD: processing field "climsss",  file: SSS_monthly.labsea1979
(PID.TID 0000.0001) EXF_SET_FLD:   myIter, count0, count1:         6      1      2
(PID.TID 0000.0001) EXF_SET_FLD:   first, changed, fac:   F   F    0.49180327868852458
(PID.TID 0000.0001) EXF_SET_FLD: processing field "uwind",  file: u10m.labsea1979
(PID.TID 0000.0001) EXF_SET_FLD:   myIter, count0, count1:         6      1      2
(PID.TID 0000.0001) EXF_SET_FLD:   first, changed, fac:   F   F    0.49180327868852458
(PID.TID 0000.0001) EXF_SET_FLD: processing field "vwind",  file: v10m.labsea1979
(PID.TID 0000.0001) EXF_SET_FLD:   myIter, count0, count1:         6      1      2
(PID.TID 0000.0001) EXF_SET_FLD:   first, changed, fac:   F   F    0.49180327868852458
(PID.TID 0000.0001) EXF_SET_FLD: processing field "atemp",  file: tair.labsea1979
(PID.TID 0000.0001) EXF_SET_FLD:   myIter, count0, count1:         6      1      2
(PID.TID 0000.0001) EXF_SET_FLD:   first, changed, fac:   F   F    0.49180327868852458
(PID.TID 0000.0001) EXF_SET_FLD: processing field "aqh",  file: qa.labsea1979
(PID.TID 0000.0001) EXF_SET_FLD:   myIter, count0, count1:         6      1      2
(PID.TID 0000.0001) EXF_SET_FLD:   first, changed, fac:   F   F    0.49180327868852458
(PID.TID 0000.0001) EXF_SET_FLD: processing field "precip",  file: prate.labsea1979
(PID.TID 0000.0001) EXF_SET_FLD:   myIter, count0, count1:         6      1      2
(PID.TID 0000.0001) EXF_SET_FLD:   first, changed, fac:   F   F    0.49180327868852458
(PID.TID 0000.0001) EXF_SET_FLD: processing field "swdown",  file: fsh.labsea1979
(PID.TID 0000.0001) EXF_SET_FLD:   myIter, count0, count1:         6      1      2
(PID.TID 0000.0001) EXF_SET_FLD:   first, changed, fac:   F   F    0.49180327868852458
(PID.TID 0000.0001) EXF_SET_FLD: processing field "lwdown",  file: flo.labsea1979
(PID.TID 0000.0001) EXF_SET_FLD:   myIter, count0, count1:         6      1      2
(PID.TID 0000.0001) EXF_SET_FLD:   first, changed, fac:   F   F    0.49180327868852458
DEBUG_STATS_RL: Uice pre  iter (SEAICE_LSR  1)  min= -1.19106759196614E-02
DEBUG_STATS_RL: Uice pre  iter (SEAICE_LSR  1)  max=  2.40859973799500E-01
DEBUG_STATS_RL: Uice pre  iter (SEAICE_LSR  1) mean=  7.02597534860948E-02
DEBUG_STATS_RL: Uice pre  iter (SEAICE_LSR  1) S.D.=  7.57773428259753E-02
DEBUG_STATS_RL: Vice pre  iter (SEAICE_LSR  1)  min= -1.74132342678207E-01
DEBUG_STATS_RL: Vice pre  iter (SEAICE_LSR  1)  max=  9.66358613081399E-02
DEBUG_STATS_RL: Vice pre  iter (SEAICE_LSR  1) mean= -4.28491368242810E-02
DEBUG_STATS_RL: Vice pre  iter (SEAICE_LSR  1) S.D.=  5.63763392291550E-02
DEBUG_STATS_RL: Uice pre  iter (SEAICE_LSR  2)  min= -1.30564509125757E-02
DEBUG_STATS_RL: Uice pre  iter (SEAICE_LSR  2)  max=  2.47901039964918E-01
DEBUG_STATS_RL: Uice pre  iter (SEAICE_LSR  2) mean=  6.80717062410296E-02
DEBUG_STATS_RL: Uice pre  iter (SEAICE_LSR  2) S.D.=  7.48548542542582E-02
DEBUG_STATS_RL: Vice pre  iter (SEAICE_LSR  2)  min= -1.68314830999124E-01
DEBUG_STATS_RL: Vice pre  iter (SEAICE_LSR  2)  max=  8.87290074915900E-02
DEBUG_STATS_RL: Vice pre  iter (SEAICE_LSR  2) mean= -4.61137817409455E-02
DEBUG_STATS_RL: Vice pre  iter (SEAICE_LSR  2) S.D.=  5.74118961796309E-02
DEBUG_STATS_RL:                EtaN (DYNAMICS)  min= -1.25510578434462E-01
DEBUG_STATS_RL:                EtaN (DYNAMICS)  max=  3.29809109672203E-01
DEBUG_STATS_RL:                EtaN (DYNAMICS) mean= -3.51679735470302E-03
DEBUG_STATS_RL:                EtaN (DYNAMICS) S.D.=  7.24267737471536E-02
DEBUG_STATS_RL:                Uvel (DYNAMICS)  min= -3.59096386964102E-02
DEBUG_STATS_RL:                Uvel (DYNAMICS)  max=  1.01288605318195E-01
DEBUG_STATS_RL:                Uvel (DYNAMICS) mean=  5.06442107691443E-03
DEBUG_STATS_RL:                Uvel (DYNAMICS) S.D.=  1.40087544095653E-02
DEBUG_STATS_RL:                Vvel (DYNAMICS)  min= -1.10756263988798E-01
DEBUG_STATS_RL:                Vvel (DYNAMICS)  max=  7.07208418107748E-02
DEBUG_STATS_RL:                Vvel (DYNAMICS) mean= -2.17557054828444E-03
DEBUG_STATS_RL:                Vvel (DYNAMICS) S.D.=  1.80912833066385E-02
DEBUG_STATS_RL:                Wvel (DYNAMICS)  min= -2.43811460414301E-04
DEBUG_STATS_RL:                Wvel (DYNAMICS)  max=  3.28816353261790E-04
DEBUG_STATS_RL:                Wvel (DYNAMICS) mean= -1.37923543342930E-07
DEBUG_STATS_RL:                Wvel (DYNAMICS) S.D.=  2.75149300864468E-05
DEBUG_STATS_RL:               Theta (DYNAMICS)  min= -1.96015217723737E+00
DEBUG_STATS_RL:               Theta (DYNAMICS)  max=  1.32512671183370E+01
DEBUG_STATS_RL:               Theta (DYNAMICS) mean=  2.41531606071968E+00
DEBUG_STATS_RL:               Theta (DYNAMICS) S.D.=  2.57483151675911E+00
DEBUG_STATS_RL:                Salt (DYNAMICS)  min=  2.76290307531745E+01
DEBUG_STATS_RL:                Salt (DYNAMICS)  max=  3.54512307060718E+01
DEBUG_STATS_RL:                Salt (DYNAMICS) mean=  3.39367446276238E+01
DEBUG_STATS_RL:                Salt (DYNAMICS) S.D.=  1.15382313156805E+00
DEBUG_STATS_RL:                  Gu (DYNAMICS)  min= -4.45840116890899E-02
DEBUG_STATS_RL:                  Gu (DYNAMICS)  max=  1.13252404039500E-01
DEBUG_STATS_RL:                  Gu (DYNAMICS) mean=  3.02808241161229E-03
DEBUG_STATS_RL:                  Gu (DYNAMICS) S.D.=  1.59063121238893E-02
DEBUG_STATS_RL:                  Gv (DYNAMICS)  min= -1.34630447324912E-01
DEBUG_STATS_RL:                  Gv (DYNAMICS)  max=  4.81174890382835E-02
DEBUG_STATS_RL:                  Gv (DYNAMICS) mean= -7.41639241987065E-03
DEBUG_STATS_RL:                  Gv (DYNAMICS) S.D.=  1.85638365104700E-02
DEBUG_STATS_RL:               GuNm1 (DYNAMICS)  min= -3.33271036892904E-07
DEBUG_STATS_RL:               GuNm1 (DYNAMICS)  max=  1.87479663955270E-07
DEBUG_STATS_RL:               GuNm1 (DYNAMICS) mean= -3.31200046769952E-09
DEBUG_STATS_RL:               GuNm1 (DYNAMICS) S.D.=  4.08419141881971E-08
DEBUG_STATS_RL:               GvNm1 (DYNAMICS)  min= -2.04912919624491E-07
DEBUG_STATS_RL:               GvNm1 (DYNAMICS)  max=  1.56710147054438E-07
DEBUG_STATS_RL:               GvNm1 (DYNAMICS) mean= -8.96938696731291E-10
DEBUG_STATS_RL:               GvNm1 (DYNAMICS) S.D.=  3.95873164870957E-08
DEBUG_STATS_RL:               GtNm1 (DYNAMICS)  min=  0.00000000000000E+00
DEBUG_STATS_RL:               GtNm1 (DYNAMICS)  max=  0.00000000000000E+00
DEBUG_STATS_RL:               GtNm1 (DYNAMICS) mean=  0.00000000000000E+00
DEBUG_STATS_RL:               GtNm1 (DYNAMICS) S.D.=  0.00000000000000E+00
DEBUG_STATS_RL:               GsNm1 (DYNAMICS)  min=  0.00000000000000E+00
DEBUG_STATS_RL:               GsNm1 (DYNAMICS)  max=  0.00000000000000E+00
DEBUG_STATS_RL:               GsNm1 (DYNAMICS) mean=  0.00000000000000E+00
DEBUG_STATS_RL:               GsNm1 (DYNAMICS) S.D.=  0.00000000000000E+00
DEBUG_STATS_RL:    cg2d_b (SOLVE_FOR_PRESSURE)  min= -7.43169656861245E+03
DEBUG_STATS_RL:    cg2d_b (SOLVE_FOR_PRESSURE)  max=  2.17598296942634E+03
DEBUG_STATS_RL:    cg2d_b (SOLVE_FOR_PRESSURE) mean=  6.96331881044898E-13
DEBUG_STATS_RL:    cg2d_b (SOLVE_FOR_PRESSURE) S.D.=  9.02750100849735E+02
 cg2d: Sum(rhs),rhsMax =   1.41067713066434E-14  1.19612709187932E+00
DEBUG_STATS_RL:    cg2d_x (SOLVE_FOR_PRESSURE)  min= -1.18794061890904E+00
DEBUG_STATS_RL:    cg2d_x (SOLVE_FOR_PRESSURE)  max=  3.24511049575726E+00
DEBUG_STATS_RL:    cg2d_x (SOLVE_FOR_PRESSURE) mean= -3.88654400025836E-02
DEBUG_STATS_RL:    cg2d_x (SOLVE_FOR_PRESSURE) S.D.=  6.81167535252279E-01
DEBUG_STATS_RL:          Uvel (THERMODYNAMICS)  min= -3.57601727936033E-02
DEBUG_STATS_RL:          Uvel (THERMODYNAMICS)  max=  1.04775938290593E-01
DEBUG_STATS_RL:          Uvel (THERMODYNAMICS) mean=  4.39725630125182E-03
DEBUG_STATS_RL:          Uvel (THERMODYNAMICS) S.D.=  1.39028540310335E-02
DEBUG_STATS_RL:          Vvel (THERMODYNAMICS)  min= -1.27584762387762E-01
DEBUG_STATS_RL:          Vvel (THERMODYNAMICS)  max=  6.50083276838834E-02
DEBUG_STATS_RL:          Vvel (THERMODYNAMICS) mean= -3.36887217582008E-03
DEBUG_STATS_RL:          Vvel (THERMODYNAMICS) S.D.=  1.85890275650197E-02
DEBUG_STATS_RL:          Wvel (THERMODYNAMICS)  min= -2.67954696014334E-04
DEBUG_STATS_RL:          Wvel (THERMODYNAMICS)  max=  3.29804232734301E-04
DEBUG_STATS_RL:          Wvel (THERMODYNAMICS) mean= -4.85616750767614E-08
DEBUG_STATS_RL:          Wvel (THERMODYNAMICS) S.D.=  2.84164537902804E-05
DEBUG_STATS_RL:         Theta (THERMODYNAMICS)  min= -1.95963016104374E+00
DEBUG_STATS_RL:         Theta (THERMODYNAMICS)  max=  1.32396343409662E+01
DEBUG_STATS_RL:         Theta (THERMODYNAMICS) mean=  2.41506584132490E+00
DEBUG_STATS_RL:         Theta (THERMODYNAMICS) S.D.=  2.57443936967394E+00
DEBUG_STATS_RL:          Salt (THERMODYNAMICS)  min=  2.76338867569799E+01
DEBUG_STATS_RL:          Salt (THERMODYNAMICS)  max=  3.54511617149686E+01
DEBUG_STATS_RL:          Salt (THERMODYNAMICS) mean=  3.39367496241626E+01
DEBUG_STATS_RL:          Salt (THERMODYNAMICS) S.D.=  1.15359229307638E+00
DEBUG_STATS_RL:         GtNm1 (THERMODYNAMICS)  min=  0.00000000000000E+00
DEBUG_STATS_RL:         GtNm1 (THERMODYNAMICS)  max=  0.00000000000000E+00
DEBUG_STATS_RL:         GtNm1 (THERMODYNAMICS) mean=  0.00000000000000E+00
DEBUG_STATS_RL:         GtNm1 (THERMODYNAMICS) S.D.=  0.00000000000000E+00
DEBUG_STATS_RL:         GsNm1 (THERMODYNAMICS)  min=  0.00000000000000E+00
DEBUG_STATS_RL:         GsNm1 (THERMODYNAMICS)  max=  0.00000000000000E+00
DEBUG_STATS_RL:         GsNm1 (THERMODYNAMICS) mean=  0.00000000000000E+00
DEBUG_STATS_RL:         GsNm1 (THERMODYNAMICS) S.D.=  0.00000000000000E+00
(PID.TID 0000.0001)  MDS_WRITE_FIELD: it,rec,kS,kL,kH=       1     3   1   1   1 file=m_sst_step.0000000001
(PID.TID 0000.0001)  MDS_READ_FIELD: opening global file: xx_atemp.effective.0000000001.data
(PID.TID 0000.0001) EXF_SET_FLD: processing field "climsss",  file: SSS_monthly.labsea1979
(PID.TID 0000.0001) EXF_SET_FLD:   myIter, count0, count1:         7      1      2
(PID.TID 0000.0001) EXF_SET_FLD:   first, changed, fac:   F   F    0.49043715846994540
(PID.TID 0000.0001) EXF_SET_FLD: processing field "uwind",  file: u10m.labsea1979
(PID.TID 0000.0001) EXF_SET_FLD:   myIter, count0, count1:         7      1      2
(PID.TID 0000.0001) EXF_SET_FLD:   first, changed, fac:   F   F    0.49043715846994540
(PID.TID 0000.0001) EXF_SET_FLD: processing field "vwind",  file: v10m.labsea1979
(PID.TID 0000.0001) EXF_SET_FLD:   myIter, count0, count1:         7      1      2
(PID.TID 0000.0001) EXF_SET_FLD:   first, changed, fac:   F   F    0.49043715846994540
(PID.TID 0000.0001) EXF_SET_FLD: processing field "atemp",  file: tair.labsea1979
(PID.TID 0000.0001) EXF_SET_FLD:   myIter, count0, count1:         7      1      2
(PID.TID 0000.0001) EXF_SET_FLD:   first, changed, fac:   F   F    0.49043715846994540
(PID.TID 0000.0001) EXF_SET_FLD: processing field "aqh",  file: qa.labsea1979
(PID.TID 0000.0001) EXF_SET_FLD:   myIter, count0, count1:         7      1      2
(PID.TID 0000.0001) EXF_SET_FLD:   first, changed, fac:   F   F    0.49043715846994540
(PID.TID 0000.0001) EXF_SET_FLD: processing field "precip",  file: prate.labsea1979
(PID.TID 0000.0001) EXF_SET_FLD:   myIter, count0, count1:         7      1      2
(PID.TID 0000.0001) EXF_SET_FLD:   first, changed, fac:   F   F    0.49043715846994540
(PID.TID 0000.0001) EXF_SET_FLD: processing field "swdown",  file: fsh.labsea1979
(PID.TID 0000.0001) EXF_SET_FLD:   myIter, count0, count1:         7      1      2
(PID.TID 0000.0001) EXF_SET_FLD:   first, changed, fac:   F   F    0.49043715846994540
(PID.TID 0000.0001) EXF_SET_FLD: processing field "lwdown",  file: flo.labsea1979
(PID.TID 0000.0001) EXF_SET_FLD:   myIter, count0, count1:         7      1      2
(PID.TID 0000.0001) EXF_SET_FLD:   first, changed, fac:   F   F    0.49043715846994540
DEBUG_STATS_RL: Uice pre  iter (SEAICE_LSR  1)  min= -1.54549194525866E-02
DEBUG_STATS_RL: Uice pre  iter (SEAICE_LSR  1)  max=  2.53524286292195E-01
DEBUG_STATS_RL: Uice pre  iter (SEAICE_LSR  1) mean=  6.68799365320119E-02
DEBUG_STATS_RL: Uice pre  iter (SEAICE_LSR  1) S.D.=  7.54478852962580E-02
DEBUG_STATS_RL: Vice pre  iter (SEAICE_LSR  1)  min= -1.68373183021268E-01
DEBUG_STATS_RL: Vice pre  iter (SEAICE_LSR  1)  max=  8.10859368452303E-02
DEBUG_STATS_RL: Vice pre  iter (SEAICE_LSR  1) mean= -4.94905385200998E-02
DEBUG_STATS_RL: Vice pre  iter (SEAICE_LSR  1) S.D.=  5.89447951203408E-02
DEBUG_STATS_RL: Uice pre  iter (SEAICE_LSR  2)  min= -1.68104910559763E-02
DEBUG_STATS_RL: Uice pre  iter (SEAICE_LSR  2)  max=  2.51381266335640E-01
DEBUG_STATS_RL: Uice pre  iter (SEAICE_LSR  2) mean=  6.26056742417120E-02
DEBUG_STATS_RL: Uice pre  iter (SEAICE_LSR  2) S.D.=  7.23215228186589E-02
DEBUG_STATS_RL: Vice pre  iter (SEAICE_LSR  2)  min= -1.70146515867233E-01
DEBUG_STATS_RL: Vice pre  iter (SEAICE_LSR  2)  max=  7.01571636850258E-02
DEBUG_STATS_RL: Vice pre  iter (SEAICE_LSR  2) mean= -5.12009841743803E-02
DEBUG_STATS_RL: Vice pre  iter (SEAICE_LSR  2) S.D.=  5.84735965012139E-02
DEBUG_STATS_RL:                EtaN (DYNAMICS)  min= -1.21025777222894E-01
DEBUG_STATS_RL:                EtaN (DYNAMICS)  max=  3.30607450971643E-01
DEBUG_STATS_RL:                EtaN (DYNAMICS) mean= -3.95955825447081E-03
DEBUG_STATS_RL:                EtaN (DYNAMICS) S.D.=  6.93964235759688E-02
DEBUG_STATS_RL:                Uvel (DYNAMICS)  min= -3.57601727936033E-02
DEBUG_STATS_RL:                Uvel (DYNAMICS)  max=  1.04775938290593E-01
DEBUG_STATS_RL:                Uvel (DYNAMICS) mean=  4.39725630125182E-03
DEBUG_STATS_RL:                Uvel (DYNAMICS) S.D.=  1.39028540310335E-02
DEBUG_STATS_RL:                Vvel (DYNAMICS)  min= -1.27584762387762E-01
DEBUG_STATS_RL:                Vvel (DYNAMICS)  max=  6.50083276838834E-02
DEBUG_STATS_RL:                Vvel (DYNAMICS) mean= -3.36887217582008E-03
DEBUG_STATS_RL:                Vvel (DYNAMICS) S.D.=  1.85890275650197E-02
DEBUG_STATS_RL:                Wvel (DYNAMICS)  min= -2.67954696014334E-04
DEBUG_STATS_RL:                Wvel (DYNAMICS)  max=  3.29804232734301E-04
DEBUG_STATS_RL:                Wvel (DYNAMICS) mean= -4.85616750767614E-08
DEBUG_STATS_RL:                Wvel (DYNAMICS) S.D.=  2.84164537902804E-05
DEBUG_STATS_RL:               Theta (DYNAMICS)  min= -1.95963016104374E+00
DEBUG_STATS_RL:               Theta (DYNAMICS)  max=  1.32396343409662E+01
DEBUG_STATS_RL:               Theta (DYNAMICS) mean=  2.41506584132490E+00
DEBUG_STATS_RL:               Theta (DYNAMICS) S.D.=  2.57443936967394E+00
DEBUG_STATS_RL:                Salt (DYNAMICS)  min=  2.76338867569799E+01
DEBUG_STATS_RL:                Salt (DYNAMICS)  max=  3.54511617149686E+01
DEBUG_STATS_RL:                Salt (DYNAMICS) mean=  3.39367496241626E+01
DEBUG_STATS_RL:                Salt (DYNAMICS) S.D.=  1.15359229307638E+00
DEBUG_STATS_RL:                  Gu (DYNAMICS)  min= -5.18639383664093E-02
DEBUG_STATS_RL:                  Gu (DYNAMICS)  max=  1.08500044377568E-01
DEBUG_STATS_RL:                  Gu (DYNAMICS) mean=  2.22152146945400E-03
DEBUG_STATS_RL:                  Gu (DYNAMICS) S.D.=  1.62488741545267E-02
DEBUG_STATS_RL:                  Gv (DYNAMICS)  min= -1.40216393355448E-01
DEBUG_STATS_RL:                  Gv (DYNAMICS)  max=  4.07135165171732E-02
DEBUG_STATS_RL:                  Gv (DYNAMICS) mean= -7.84361289825861E-03
DEBUG_STATS_RL:                  Gv (DYNAMICS) S.D.=  1.86090017356288E-02
DEBUG_STATS_RL:               GuNm1 (DYNAMICS)  min= -3.48473911940034E-07
DEBUG_STATS_RL:               GuNm1 (DYNAMICS)  max=  1.90416017948021E-07
DEBUG_STATS_RL:               GuNm1 (DYNAMICS) mean= -3.12306477014106E-09
DEBUG_STATS_RL:               GuNm1 (DYNAMICS) S.D.=  4.09417632400134E-08
DEBUG_STATS_RL:               GvNm1 (DYNAMICS)  min= -2.15359173477236E-07
DEBUG_STATS_RL:               GvNm1 (DYNAMICS)  max=  1.82438063100004E-07
DEBUG_STATS_RL:               GvNm1 (DYNAMICS) mean= -6.53519601921780E-10
DEBUG_STATS_RL:               GvNm1 (DYNAMICS) S.D.=  4.16452354556348E-08
DEBUG_STATS_RL:               GtNm1 (DYNAMICS)  min=  0.00000000000000E+00
DEBUG_STATS_RL:               GtNm1 (DYNAMICS)  max=  0.00000000000000E+00
DEBUG_STATS_RL:               GtNm1 (DYNAMICS) mean=  0.00000000000000E+00
DEBUG_STATS_RL:               GtNm1 (DYNAMICS) S.D.=  0.00000000000000E+00
DEBUG_STATS_RL:               GsNm1 (DYNAMICS)  min=  0.00000000000000E+00
DEBUG_STATS_RL:               GsNm1 (DYNAMICS)  max=  0.00000000000000E+00
DEBUG_STATS_RL:               GsNm1 (DYNAMICS) mean=  0.00000000000000E+00
DEBUG_STATS_RL:               GsNm1 (DYNAMICS) S.D.=  0.00000000000000E+00
DEBUG_STATS_RL:    cg2d_b (SOLVE_FOR_PRESSURE)  min= -7.37985604508148E+03
DEBUG_STATS_RL:    cg2d_b (SOLVE_FOR_PRESSURE)  max=  2.18366607280435E+03
DEBUG_STATS_RL:    cg2d_b (SOLVE_FOR_PRESSURE) mean=  6.18645875268461E-13
DEBUG_STATS_RL:    cg2d_b (SOLVE_FOR_PRESSURE) S.D.=  8.98963545839594E+02
 cg2d: Sum(rhs),rhsMax =   1.34267597040605E-14  1.18778339080378E+00
DEBUG_STATS_RL:    cg2d_x (SOLVE_FOR_PRESSURE)  min= -1.13929441834640E+00
DEBUG_STATS_RL:    cg2d_x (SOLVE_FOR_PRESSURE)  max=  3.20616731162253E+00
DEBUG_STATS_RL:    cg2d_x (SOLVE_FOR_PRESSURE) mean= -4.15672442271453E-02
DEBUG_STATS_RL:    cg2d_x (SOLVE_FOR_PRESSURE) S.D.=  6.51074617232215E-01
DEBUG_STATS_RL:          Uvel (THERMODYNAMICS)  min= -4.34802359621465E-02
DEBUG_STATS_RL:          Uvel (THERMODYNAMICS)  max=  9.99752242998808E-02
DEBUG_STATS_RL:          Uvel (THERMODYNAMICS) mean=  3.48264152589957E-03
DEBUG_STATS_RL:          Uvel (THERMODYNAMICS) S.D.=  1.35343125506116E-02
DEBUG_STATS_RL:          Vvel (THERMODYNAMICS)  min= -1.33439207289254E-01
DEBUG_STATS_RL:          Vvel (THERMODYNAMICS)  max=  5.60260700766945E-02
DEBUG_STATS_RL:          Vvel (THERMODYNAMICS) mean= -4.02696574872961E-03
DEBUG_STATS_RL:          Vvel (THERMODYNAMICS) S.D.=  1.80273334212797E-02
DEBUG_STATS_RL:          Wvel (THERMODYNAMICS)  min= -2.73348162229354E-04
DEBUG_STATS_RL:          Wvel (THERMODYNAMICS)  max=  3.13596923283671E-04
DEBUG_STATS_RL:          Wvel (THERMODYNAMICS) mean=  4.73709411313520E-08
DEBUG_STATS_RL:          Wvel (THERMODYNAMICS) S.D.=  2.82661454219204E-05
DEBUG_STATS_RL:         Theta (THERMODYNAMICS)  min= -1.95943609422387E+00
DEBUG_STATS_RL:         Theta (THERMODYNAMICS)  max=  1.32225113409295E+01
DEBUG_STATS_RL:         Theta (THERMODYNAMICS) mean=  2.41480286619418E+00
DEBUG_STATS_RL:         Theta (THERMODYNAMICS) S.D.=  2.57398860030337E+00
DEBUG_STATS_RL:          Salt (THERMODYNAMICS)  min=  2.76387468555707E+01
DEBUG_STATS_RL:          Salt (THERMODYNAMICS)  max=  3.54510358217953E+01
DEBUG_STATS_RL:          Salt (THERMODYNAMICS) mean=  3.39367601804946E+01
DEBUG_STATS_RL:          Salt (THERMODYNAMICS) S.D.=  1.15334890349729E+00
DEBUG_STATS_RL:         GtNm1 (THERMODYNAMICS)  min=  0.00000000000000E+00
DEBUG_STATS_RL:         GtNm1 (THERMODYNAMICS)  max=  0.00000000000000E+00
DEBUG_STATS_RL:         GtNm1 (THERMODYNAMICS) mean=  0.00000000000000E+00
DEBUG_STATS_RL:         GtNm1 (THERMODYNAMICS) S.D.=  0.00000000000000E+00
DEBUG_STATS_RL:         GsNm1 (THERMODYNAMICS)  min=  0.00000000000000E+00
DEBUG_STATS_RL:         GsNm1 (THERMODYNAMICS)  max=  0.00000000000000E+00
DEBUG_STATS_RL:         GsNm1 (THERMODYNAMICS) mean=  0.00000000000000E+00
DEBUG_STATS_RL:         GsNm1 (THERMODYNAMICS) S.D.=  0.00000000000000E+00
(PID.TID 0000.0001)  MDS_WRITE_FIELD: it,rec,kS,kL,kH=       1     4   1   1   1 file=m_sst_step.0000000001
(PID.TID 0000.0001)  MDS_READ_FIELD: opening global file: xx_atemp.effective.0000000001.data
(PID.TID 0000.0001) EXF_SET_FLD: processing field "climsss",  file: SSS_monthly.labsea1979
(PID.TID 0000.0001) EXF_SET_FLD:   myIter, count0, count1:         8      1      2
(PID.TID 0000.0001) EXF_SET_FLD:   first, changed, fac:   F   F    0.48907103825136611
(PID.TID 0000.0001) EXF_SET_FLD: processing field "uwind",  file: u10m.labsea1979
(PID.TID 0000.0001) EXF_SET_FLD:   myIter, count0, count1:         8      1      2
(PID.TID 0000.0001) EXF_SET_FLD:   first, changed, fac:   F   F    0.48907103825136611
(PID.TID 0000.0001) EXF_SET_FLD: processing field "vwind",  file: v10m.labsea1979
(PID.TID 0000.0001) EXF_SET_FLD:   myIter, count0, count1:         8      1      2
(PID.TID 0000.0001) EXF_SET_FLD:   first, changed, fac:   F   F    0.48907103825136611
(PID.TID 0000.0001) EXF_SET_FLD: processing field "atemp",  file: tair.labsea1979
(PID.TID 0000.0001) EXF_SET_FLD:   myIter, count0, count1:         8      1      2
(PID.TID 0000.0001) EXF_SET_FLD:   first, changed, fac:   F   F    0.48907103825136611
(PID.TID 0000.0001) EXF_SET_FLD: processing field "aqh",  file: qa.labsea1979
(PID.TID 0000.0001) EXF_SET_FLD:   myIter, count0, count1:         8      1      2
(PID.TID 0000.0001) EXF_SET_FLD:   first, changed, fac:   F   F    0.48907103825136611
(PID.TID 0000.0001) EXF_SET_FLD: processing field "precip",  file: prate.labsea1979
(PID.TID 0000.0001) EXF_SET_FLD:   myIter, count0, count1:         8      1      2
(PID.TID 0000.0001) EXF_SET_FLD:   first, changed, fac:   F   F    0.48907103825136611
(PID.TID 0000.0001) EXF_SET_FLD: processing field "swdown",  file: fsh.labsea1979
(PID.TID 0000.0001) EXF_SET_FLD:   myIter, count0, count1:         8      1      2
(PID.TID 0000.0001) EXF_SET_FLD:   first, changed, fac:   F   F    0.48907103825136611
(PID.TID 0000.0001) EXF_SET_FLD: processing field "lwdown",  file: flo.labsea1979
(PID.TID 0000.0001) EXF_SET_FLD:   myIter, count0, count1:         8      1      2
(PID.TID 0000.0001) EXF_SET_FLD:   first, changed, fac:   F   F    0.48907103825136611
DEBUG_STATS_RL: Uice pre  iter (SEAICE_LSR  1)  min= -1.95687208100102E-02
DEBUG_STATS_RL: Uice pre  iter (SEAICE_LSR  1)  max=  2.56695252608154E-01
DEBUG_STATS_RL: Uice pre  iter (SEAICE_LSR  1) mean=  6.10102626008752E-02
DEBUG_STATS_RL: Uice pre  iter (SEAICE_LSR  1) S.D.=  7.26515133443026E-02
DEBUG_STATS_RL: Vice pre  iter (SEAICE_LSR  1)  min= -1.74351841639993E-01
DEBUG_STATS_RL: Vice pre  iter (SEAICE_LSR  1)  max=  6.17815719868620E-02
DEBUG_STATS_RL: Vice pre  iter (SEAICE_LSR  1) mean= -5.34332922103127E-02
DEBUG_STATS_RL: Vice pre  iter (SEAICE_LSR  1) S.D.=  5.91879685811095E-02
DEBUG_STATS_RL: Uice pre  iter (SEAICE_LSR  2)  min= -2.10631196463131E-02
DEBUG_STATS_RL: Uice pre  iter (SEAICE_LSR  2)  max=  2.47741110498678E-01
DEBUG_STATS_RL: Uice pre  iter (SEAICE_LSR  2) mean=  5.58563099525574E-02
DEBUG_STATS_RL: Uice pre  iter (SEAICE_LSR  2) S.D.=  6.83562873807025E-02
DEBUG_STATS_RL: Vice pre  iter (SEAICE_LSR  2)  min= -1.71270231909308E-01
DEBUG_STATS_RL: Vice pre  iter (SEAICE_LSR  2)  max=  5.00408736690829E-02
DEBUG_STATS_RL: Vice pre  iter (SEAICE_LSR  2) mean= -5.35471708937630E-02
DEBUG_STATS_RL: Vice pre  iter (SEAICE_LSR  2) S.D.=  5.75117440524867E-02
DEBUG_STATS_RL:                EtaN (DYNAMICS)  min= -1.16069768363258E-01
DEBUG_STATS_RL:                EtaN (DYNAMICS)  max=  3.26639972250553E-01
DEBUG_STATS_RL:                EtaN (DYNAMICS) mean= -4.23481440025525E-03
DEBUG_STATS_RL:                EtaN (DYNAMICS) S.D.=  6.63305979494085E-02
DEBUG_STATS_RL:                Uvel (DYNAMICS)  min= -4.34802359621465E-02
DEBUG_STATS_RL:                Uvel (DYNAMICS)  max=  9.99752242998808E-02
DEBUG_STATS_RL:                Uvel (DYNAMICS) mean=  3.48264152589957E-03
DEBUG_STATS_RL:                Uvel (DYNAMICS) S.D.=  1.35343125506116E-02
DEBUG_STATS_RL:                Vvel (DYNAMICS)  min= -1.33439207289254E-01
DEBUG_STATS_RL:                Vvel (DYNAMICS)  max=  5.60260700766945E-02
DEBUG_STATS_RL:                Vvel (DYNAMICS) mean= -4.02696574872961E-03
DEBUG_STATS_RL:                Vvel (DYNAMICS) S.D.=  1.80273334212797E-02
DEBUG_STATS_RL:                Wvel (DYNAMICS)  min= -2.73348162229354E-04
DEBUG_STATS_RL:                Wvel (DYNAMICS)  max=  3.13596923283671E-04
DEBUG_STATS_RL:                Wvel (DYNAMICS) mean=  4.73709411313520E-08
DEBUG_STATS_RL:                Wvel (DYNAMICS) S.D.=  2.82661454219204E-05
DEBUG_STATS_RL:               Theta (DYNAMICS)  min= -1.95943609422387E+00
DEBUG_STATS_RL:               Theta (DYNAMICS)  max=  1.32225113409295E+01
DEBUG_STATS_RL:               Theta (DYNAMICS) mean=  2.41480286619418E+00
DEBUG_STATS_RL:               Theta (DYNAMICS) S.D.=  2.57398860030337E+00
DEBUG_STATS_RL:                Salt (DYNAMICS)  min=  2.76387468555707E+01
DEBUG_STATS_RL:                Salt (DYNAMICS)  max=  3.54510358217953E+01
DEBUG_STATS_RL:                Salt (DYNAMICS) mean=  3.39367601804946E+01
DEBUG_STATS_RL:                Salt (DYNAMICS) S.D.=  1.15334890349729E+00
DEBUG_STATS_RL:                  Gu (DYNAMICS)  min= -5.98368153074020E-02
DEBUG_STATS_RL:                  Gu (DYNAMICS)  max=  9.68873121299251E-02
DEBUG_STATS_RL:                  Gu (DYNAMICS) mean=  1.30194972947503E-03
DEBUG_STATS_RL:                  Gu (DYNAMICS) S.D.=  1.61566615235326E-02
DEBUG_STATS_RL:                  Gv (DYNAMICS)  min= -1.36271217267994E-01
DEBUG_STATS_RL:                  Gv (DYNAMICS)  max=  3.83573237348583E-02
DEBUG_STATS_RL:                  Gv (DYNAMICS) mean= -7.71950831958569E-03
DEBUG_STATS_RL:                  Gv (DYNAMICS) S.D.=  1.77533563667874E-02
DEBUG_STATS_RL:               GuNm1 (DYNAMICS)  min= -3.40955168137046E-07
DEBUG_STATS_RL:               GuNm1 (DYNAMICS)  max=  1.82641400821284E-07
DEBUG_STATS_RL:               GuNm1 (DYNAMICS) mean= -2.79196714442664E-09
DEBUG_STATS_RL:               GuNm1 (DYNAMICS) S.D.=  4.07453533304239E-08
DEBUG_STATS_RL:               GvNm1 (DYNAMICS)  min= -2.14559263714299E-07
DEBUG_STATS_RL:               GvNm1 (DYNAMICS)  max=  1.94148824775153E-07
DEBUG_STATS_RL:               GvNm1 (DYNAMICS) mean= -4.04169206802268E-10
DEBUG_STATS_RL:               GvNm1 (DYNAMICS) S.D.=  4.19222729579498E-08
DEBUG_STATS_RL:               GtNm1 (DYNAMICS)  min=  0.00000000000000E+00
DEBUG_STATS_RL:               GtNm1 (DYNAMICS)  max=  0.00000000000000E+00
DEBUG_STATS_RL:               GtNm1 (DYNAMICS) mean=  0.00000000000000E+00
DEBUG_STATS_RL:               GtNm1 (DYNAMICS) S.D.=  0.00000000000000E+00
DEBUG_STATS_RL:               GsNm1 (DYNAMICS)  min=  0.00000000000000E+00
DEBUG_STATS_RL:               GsNm1 (DYNAMICS)  max=  0.00000000000000E+00
DEBUG_STATS_RL:               GsNm1 (DYNAMICS) mean=  0.00000000000000E+00
DEBUG_STATS_RL:               GsNm1 (DYNAMICS) S.D.=  0.00000000000000E+00
DEBUG_STATS_RL:    cg2d_b (SOLVE_FOR_PRESSURE)  min= -7.29975929937793E+03
DEBUG_STATS_RL:    cg2d_b (SOLVE_FOR_PRESSURE)  max=  2.19478299507054E+03
DEBUG_STATS_RL:    cg2d_b (SOLVE_FOR_PRESSURE) mean= -3.96767063648440E-13
DEBUG_STATS_RL:    cg2d_b (SOLVE_FOR_PRESSURE) S.D.=  8.94146290227710E+02
 cg2d: Sum(rhs),rhsMax =  -6.92501611609941E-15  1.17489186776824E+00
DEBUG_STATS_RL:    cg2d_x (SOLVE_FOR_PRESSURE)  min= -1.08771127617308E+00
DEBUG_STATS_RL:    cg2d_x (SOLVE_FOR_PRESSURE)  max=  3.12128519797376E+00
DEBUG_STATS_RL:    cg2d_x (SOLVE_FOR_PRESSURE) mean= -4.19588396852395E-02
DEBUG_STATS_RL:    cg2d_x (SOLVE_FOR_PRESSURE) S.D.=  6.20262122262901E-01
DEBUG_STATS_RL:          Uvel (THERMODYNAMICS)  min= -5.12375198242059E-02
DEBUG_STATS_RL:          Uvel (THERMODYNAMICS)  max=  8.84896388076339E-02
DEBUG_STATS_RL:          Uvel (THERMODYNAMICS) mean=  2.55769138538291E-03
DEBUG_STATS_RL:          Uvel (THERMODYNAMICS) S.D.=  1.29064693910456E-02
DEBUG_STATS_RL:          Vvel (THERMODYNAMICS)  min= -1.29344604199479E-01
DEBUG_STATS_RL:          Vvel (THERMODYNAMICS)  max=  4.58633296186249E-02
DEBUG_STATS_RL:          Vvel (THERMODYNAMICS) mean= -4.14107843006319E-03
DEBUG_STATS_RL:          Vvel (THERMODYNAMICS) S.D.=  1.66082836245794E-02
DEBUG_STATS_RL:          Wvel (THERMODYNAMICS)  min= -2.60848991809587E-04
DEBUG_STATS_RL:          Wvel (THERMODYNAMICS)  max=  2.85731299794369E-04
DEBUG_STATS_RL:          Wvel (THERMODYNAMICS) mean=  1.36793666178293E-07
DEBUG_STATS_RL:          Wvel (THERMODYNAMICS) S.D.=  2.70580054557619E-05
DEBUG_STATS_RL:         Theta (THERMODYNAMICS)  min= -1.95932886747261E+00
DEBUG_STATS_RL:         Theta (THERMODYNAMICS)  max=  1.32010303660582E+01
DEBUG_STATS_RL:         Theta (THERMODYNAMICS) mean=  2.41452315045422E+00
DEBUG_STATS_RL:         Theta (THERMODYNAMICS) S.D.=  2.57350774067654E+00
DEBUG_STATS_RL:          Salt (THERMODYNAMICS)  min=  2.76435505129419E+01
DEBUG_STATS_RL:          Salt (THERMODYNAMICS)  max=  3.54508660670958E+01
DEBUG_STATS_RL:          Salt (THERMODYNAMICS) mean=  3.39367749828872E+01
DEBUG_STATS_RL:          Salt (THERMODYNAMICS) S.D.=  1.15309738582237E+00
DEBUG_STATS_RL:         GtNm1 (THERMODYNAMICS)  min=  0.00000000000000E+00
DEBUG_STATS_RL:         GtNm1 (THERMODYNAMICS)  max=  0.00000000000000E+00
DEBUG_STATS_RL:         GtNm1 (THERMODYNAMICS) mean=  0.00000000000000E+00
DEBUG_STATS_RL:         GtNm1 (THERMODYNAMICS) S.D.=  0.00000000000000E+00
DEBUG_STATS_RL:         GsNm1 (THERMODYNAMICS)  min=  0.00000000000000E+00
DEBUG_STATS_RL:         GsNm1 (THERMODYNAMICS)  max=  0.00000000000000E+00
DEBUG_STATS_RL:         GsNm1 (THERMODYNAMICS) mean=  0.00000000000000E+00
DEBUG_STATS_RL:         GsNm1 (THERMODYNAMICS) S.D.=  0.00000000000000E+00
(PID.TID 0000.0001) Did not write pickup because writePickupAtEnd = FALSE
(PID.TID 0000.0001)  MDS_WRITE_FIELD: it,rec,kS,kL,kH=       1     5   1   1   1 file=m_sst_step.0000000001
(PID.TID 0000.0001) gencost # 03
(PID.TID 0000.0001)  MDS_READ_FIELD: opening global file: sigma_sst.bin
(PID.TID 0000.0001)  MDS_READ_FIELD: opening global file: m_sst_step.0000000001.data
(PID.TID 0000.0001)  MDS_READ_FIELD: opening global file: labsea_SST_fields_t5
(PID.TID 0000.0001)  MDS_WRITE_FIELD: it,rec,kS,kL,kH=       1     1   1   1   1 file=misfit_sst
(PID.TID 0000.0001)  MDS_READ_FIELD: opening global file: sigma_sst.bin
(PID.TID 0000.0001)  MDS_READ_FIELD: opening global file: m_sst_step.0000000001.data
(PID.TID 0000.0001)  MDS_READ_FIELD: opening global file: labsea_SST_fields_t5
(PID.TID 0000.0001)  MDS_WRITE_FIELD: it,rec,kS,kL,kH=       1     2   1   1   1 file=misfit_sst
(PID.TID 0000.0001)  MDS_READ_FIELD: opening global file: sigma_sst.bin
(PID.TID 0000.0001)  MDS_READ_FIELD: opening global file: m_sst_step.0000000001.data
(PID.TID 0000.0001)  MDS_READ_FIELD: opening global file: labsea_SST_fields_t5
(PID.TID 0000.0001)  MDS_WRITE_FIELD: it,rec,kS,kL,kH=       1     3   1   1   1 file=misfit_sst
(PID.TID 0000.0001)  MDS_READ_FIELD: opening global file: sigma_sst.bin
(PID.TID 0000.0001)  MDS_READ_FIELD: opening global file: m_sst_step.0000000001.data
(PID.TID 0000.0001)  MDS_READ_FIELD: opening global file: labsea_SST_fields_t5
(PID.TID 0000.0001)  MDS_WRITE_FIELD: it,rec,kS,kL,kH=       1     4   1   1   1 file=misfit_sst
(PID.TID 0000.0001)  MDS_READ_FIELD: opening global file: sigma_sst.bin
(PID.TID 0000.0001)  MDS_READ_FIELD: opening global file: m_sst_step.0000000001.data
(PID.TID 0000.0001)  MDS_READ_FIELD: opening global file: labsea_SST_fields_t5
(PID.TID 0000.0001)  MDS_WRITE_FIELD: it,rec,kS,kL,kH=       1     5   1   1   1 file=misfit_sst
(PID.TID 0000.0001)  MDS_READ_FIELD: opening global file: xx_atemp.0000000001.data
(PID.TID 0000.0001)  MDS_READ_FIELD: opening global file: xx_atemp.0000000001.data
(PID.TID 0000.0001)  MDS_READ_FIELD: opening global file: xx_atemp.0000000001.data
(PID.TID 0000.0001)  MDS_READ_FIELD: opening global file: xx_atemp.0000000001.data
(PID.TID 0000.0001)  MDS_READ_FIELD: opening global file: xx_atemp.0000000001.data
(PID.TID 0000.0001)  MDS_READ_FIELD: opening global file: xx_atemp.0000000001.data
(PID.TID 0000.0001)  MDS_READ_FIELD: opening global file: xx_atemp.0000000001.data
(PID.TID 0000.0001)  MDS_READ_FIELD: opening global file: xx_atemp.0000000001.data
(PID.TID 0000.0001)  MDS_READ_FIELD: opening global file: xx_atemp.0000000001.data
(PID.TID 0000.0001)  MDS_READ_FIELD: opening global file: xx_atemp.0000000001.data
(PID.TID 0000.0001)  MDS_READ_FIELD: opening global file: xx_atemp.0000000001.data
 --> f_ice     = 0.000000000000000D+00
 --> f_smrarea = 0.000000000000000D+00
 --> f_smrarea = 0.000000000000000D+00
 --> f_smrarea = 0.000000000000000D+00
(PID.TID 0000.0001)  --> f_gencost = 0.527453128215446D+04 3
(PID.TID 0000.0001)  --> f_gentim2d = 0.243375020010000D+03 1
(PID.TID 0000.0001)  --> fc               = 0.527453128215446D+04
(PID.TID 0000.0001)  cost_Final: final cost function =  0.527453128215446D+04
(PID.TID 0000.0001) 
(PID.TID 0000.0001)              cost function evaluation finished.
(PID.TID 0000.0001) 
(PID.TID 0000.0001)   early fc =  0.000000000000000D+00
(PID.TID 0000.0001)   local fc =  0.527453128215446D+04
(PID.TID 0000.0001)  global fc =  0.527453128215446D+04
(PID.TID 0000.0001) grdchk perturb(+)fc: fcpertplus  =  5.27453128215446E+03
(PID.TID 0000.0001)  MDS_READ_FIELD: opening global file: xx_atemp.0000000001.data
(PID.TID 0000.0001)  MDS_WRITE_FIELD: it,rec,kS,kL,kH=       1     1   1   1   1 file=xx_atemp.0000000001
(PID.TID 0000.0001)  MDS_READ_FIELD: opening global file: xx_atemp.0000000001.data
(PID.TID 0000.0001)  MDS_WRITE_FIELD: it,rec,kS,kL,kH=       1     1   1   1   1 file=xx_atemp.0000000001
(PID.TID 0000.0001)  MDS_READ_META: opening file: pickup.0000000005.meta
(PID.TID 0000.0001)  nRecords = 141 ; filePrec =  64 ; fileIter =         5
(PID.TID 0000.0001)     nDims =   2 , dims:
(PID.TID 0000.0001)    1:  20   1  20
(PID.TID 0000.0001)    2:  16   1  16
(PID.TID 0000.0001)     nFlds =   9 , nFl3D =   6 , fields:
(PID.TID 0000.0001)  >Uvel    < >Vvel    < >Theta   < >Salt    < >GuNm1   < >GvNm1   < >EtaN    < >dEtaHdt < >EtaH    <
(PID.TID 0000.0001) missingVal=  1.00000000000000E+00 ; nTimRec =   1 , timeList:
(PID.TID 0000.0001)   1.800000000000E+04
(PID.TID 0000.0001) READ_MFLDS_3D_RL: read field: "Uvel    ", #   1 in fldList, rec=   1
(PID.TID 0000.0001)  MDS_READ_FIELD: opening global file: pickup.0000000005.data
(PID.TID 0000.0001) READ_MFLDS_3D_RL: read field: "Vvel    ", #   2 in fldList, rec=   2
(PID.TID 0000.0001)  MDS_READ_FIELD: opening global file: pickup.0000000005.data
(PID.TID 0000.0001) READ_MFLDS_3D_RL: read field: "Theta   ", #   3 in fldList, rec=   3
(PID.TID 0000.0001)  MDS_READ_FIELD: opening global file: pickup.0000000005.data
(PID.TID 0000.0001) READ_MFLDS_3D_RL: read field: "Salt    ", #   4 in fldList, rec=   4
(PID.TID 0000.0001)  MDS_READ_FIELD: opening global file: pickup.0000000005.data
(PID.TID 0000.0001) READ_MFLDS_3D_RL: read field: "GuNm1   ", #   5 in fldList, rec=   5
(PID.TID 0000.0001)  MDS_READ_FIELD: opening global file: pickup.0000000005.data
(PID.TID 0000.0001) READ_MFLDS_3D_RL: read field: "GvNm1   ", #   6 in fldList, rec=   6
(PID.TID 0000.0001)  MDS_READ_FIELD: opening global file: pickup.0000000005.data
(PID.TID 0000.0001) READ_MFLDS_3D_RL: read field: "EtaN    ", #   7 in fldList, rec= 139
(PID.TID 0000.0001)  MDS_READ_FIELD: opening global file: pickup.0000000005.data
(PID.TID 0000.0001) READ_MFLDS_CHECK: - normal end ; reset MFLDS file-name: pickup.0000000005
(PID.TID 0000.0001)  MDS_READ_FIELD: opening global file: pickup_cd.0000000005.data
(PID.TID 0000.0001)  MDS_READ_FIELD: opening global file: pickup_cd.0000000005.data
(PID.TID 0000.0001)  MDS_READ_FIELD: opening global file: pickup_cd.0000000005.data
(PID.TID 0000.0001)  MDS_READ_FIELD: opening global file: pickup_cd.0000000005.data
(PID.TID 0000.0001)  MDS_READ_FIELD: opening global file: pickup_cd.0000000005.data
(PID.TID 0000.0001)  MDS_READ_META: opening file: pickup_seaice.0000000005.meta
(PID.TID 0000.0001)  nRecords =  13 ; filePrec =  64 ; fileIter =         5
(PID.TID 0000.0001)     nDims =   2 , dims:
(PID.TID 0000.0001)    1:  20   1  20
(PID.TID 0000.0001)    2:  16   1  16
(PID.TID 0000.0001)     nFlds =   7 , nFl3D =   1 , fields:
(PID.TID 0000.0001)  >siTICES < >siAREA  < >siHEFF  < >siHSNOW < >siHSALT < >siUICE  < >siVICE  <
(PID.TID 0000.0001) missingVal=  1.00000000000000E+00 ; nTimRec =   1 , timeList:
(PID.TID 0000.0001)   1.800000000000E+04
(PID.TID 0000.0001) READ_MFLDS_3D_RL: read field: "siTICES ", #   1 in fldList, rec=   1
(PID.TID 0000.0001)  MDS_READ_FIELD: opening global file: pickup_seaice.0000000005.data
(PID.TID 0000.0001) READ_MFLDS_3D_RL: read field: "siAREA  ", #   2 in fldList, rec=   8
(PID.TID 0000.0001)  MDS_READ_FIELD: opening global file: pickup_seaice.0000000005.data
(PID.TID 0000.0001) READ_MFLDS_3D_RL: read field: "siHEFF  ", #   3 in fldList, rec=   9
(PID.TID 0000.0001)  MDS_READ_FIELD: opening global file: pickup_seaice.0000000005.data
(PID.TID 0000.0001) READ_MFLDS_3D_RL: read field: "siHSNOW ", #   4 in fldList, rec=  10
(PID.TID 0000.0001)  MDS_READ_FIELD: opening global file: pickup_seaice.0000000005.data
(PID.TID 0000.0001) READ_MFLDS_3D_RL: read field: "siHSALT ", #   5 in fldList, rec=  11
(PID.TID 0000.0001)  MDS_READ_FIELD: opening global file: pickup_seaice.0000000005.data
(PID.TID 0000.0001) READ_MFLDS_3D_RL: read field: "siUICE  ", #   6 in fldList, rec=  12
(PID.TID 0000.0001)  MDS_READ_FIELD: opening global file: pickup_seaice.0000000005.data
(PID.TID 0000.0001) READ_MFLDS_3D_RL: read field: "siVICE  ", #   7 in fldList, rec=  13
(PID.TID 0000.0001)  MDS_READ_FIELD: opening global file: pickup_seaice.0000000005.data
(PID.TID 0000.0001) READ_MFLDS_CHECK: - normal end ; reset MFLDS file-name: pickup_seaice.0000000005
(PID.TID 0000.0001) CTRL_INIT_REC: Getting record indices for xx_atemp
(PID.TID 0000.0001) CTRL_INIT_REC: Record indices for xx_atemp:
(PID.TID 0000.0001) CTRL_INIT_REC: startrec =          6, endrec =         11
(PID.TID 0000.0001)  MDS_READ_FIELD: opening global file: xx_atemp.0000000001.data
(PID.TID 0000.0001)  MDS_WRITE_FIELD: it,rec,kS,kL,kH=       1     1   1   1   1 file=xx_atemp.effective.0000000001
(PID.TID 0000.0001)  MDS_READ_FIELD: opening global file: xx_atemp.0000000001.data
(PID.TID 0000.0001)  MDS_WRITE_FIELD: it,rec,kS,kL,kH=       1     2   1   1   1 file=xx_atemp.effective.0000000001
(PID.TID 0000.0001)  MDS_READ_FIELD: opening global file: xx_atemp.0000000001.data
(PID.TID 0000.0001)  MDS_WRITE_FIELD: it,rec,kS,kL,kH=       1     3   1   1   1 file=xx_atemp.effective.0000000001
(PID.TID 0000.0001)  MDS_READ_FIELD: opening global file: xx_atemp.0000000001.data
(PID.TID 0000.0001)  MDS_WRITE_FIELD: it,rec,kS,kL,kH=       1     4   1   1   1 file=xx_atemp.effective.0000000001
(PID.TID 0000.0001)  MDS_READ_FIELD: opening global file: xx_atemp.0000000001.data
(PID.TID 0000.0001)  MDS_WRITE_FIELD: it,rec,kS,kL,kH=       1     5   1   1   1 file=xx_atemp.effective.0000000001
(PID.TID 0000.0001)  MDS_READ_FIELD: opening global file: xx_atemp.0000000001.data
(PID.TID 0000.0001)  MDS_WRITE_FIELD: it,rec,kS,kL,kH=       1     6   1   1   1 file=xx_atemp.effective.0000000001
(PID.TID 0000.0001)  MDS_READ_FIELD: opening global file: xx_atemp.effective.0000000001.data
(PID.TID 0000.0001)  MDS_READ_FIELD: opening global file: ones_64b.bin
(PID.TID 0000.0001)  MDS_WRITE_FIELD: it,rec,kS,kL,kH=       1     1   1   1   1 file=xx_atemp.effective.0000000001
(PID.TID 0000.0001)  MDS_READ_FIELD: opening global file: xx_atemp.effective.0000000001.data
(PID.TID 0000.0001)  MDS_READ_FIELD: opening global file: ones_64b.bin
(PID.TID 0000.0001)  MDS_WRITE_FIELD: it,rec,kS,kL,kH=       1     2   1   1   1 file=xx_atemp.effective.0000000001
(PID.TID 0000.0001)  MDS_READ_FIELD: opening global file: xx_atemp.effective.0000000001.data
(PID.TID 0000.0001)  MDS_READ_FIELD: opening global file: ones_64b.bin
(PID.TID 0000.0001)  MDS_WRITE_FIELD: it,rec,kS,kL,kH=       1     3   1   1   1 file=xx_atemp.effective.0000000001
(PID.TID 0000.0001)  MDS_READ_FIELD: opening global file: xx_atemp.effective.0000000001.data
(PID.TID 0000.0001)  MDS_READ_FIELD: opening global file: ones_64b.bin
(PID.TID 0000.0001)  MDS_WRITE_FIELD: it,rec,kS,kL,kH=       1     4   1   1   1 file=xx_atemp.effective.0000000001
(PID.TID 0000.0001)  MDS_READ_FIELD: opening global file: xx_atemp.effective.0000000001.data
(PID.TID 0000.0001)  MDS_READ_FIELD: opening global file: ones_64b.bin
(PID.TID 0000.0001)  MDS_WRITE_FIELD: it,rec,kS,kL,kH=       1     5   1   1   1 file=xx_atemp.effective.0000000001
(PID.TID 0000.0001)  MDS_READ_FIELD: opening global file: xx_atemp.effective.0000000001.data
(PID.TID 0000.0001)  MDS_READ_FIELD: opening global file: ones_64b.bin
(PID.TID 0000.0001)  MDS_WRITE_FIELD: it,rec,kS,kL,kH=       1     6   1   1   1 file=xx_atemp.effective.0000000001
(PID.TID 0000.0001) // =======================================================
(PID.TID 0000.0001) // Model current state
(PID.TID 0000.0001) // =======================================================
(PID.TID 0000.0001) 
(PID.TID 0000.0001)  MDS_WRITE_FIELD: it,rec,kS,kL,kH=       1     1   1   1   1 file=m_sst_step.0000000001
(PID.TID 0000.0001)  MDS_READ_FIELD: opening global file: xx_atemp.effective.0000000001.data
(PID.TID 0000.0001)  MDS_READ_FIELD: opening global file: xx_atemp.effective.0000000001.data
(PID.TID 0000.0001) EXF_SET_FLD: processing field "climsss",  file: SSS_monthly.labsea1979
(PID.TID 0000.0001) EXF_SET_FLD:   myIter, count0, count1:         5      1      2
(PID.TID 0000.0001) EXF_SET_FLD:   first, changed, fac:   T   F    0.49316939890710387
(PID.TID 0000.0001) EXF_SET_FLD: field "climsss", it=         5, loading rec=     1
(PID.TID 0000.0001) EXF_SET_FLD:   from file: "SSS_monthly.labsea1979"
(PID.TID 0000.0001)  MDS_READ_FIELD: opening global file: SSS_monthly.labsea1979
(PID.TID 0000.0001) EXF_SET_FLD: field "climsss", it=         5, loading rec=     2
(PID.TID 0000.0001) EXF_SET_FLD:   from file: "SSS_monthly.labsea1979"
(PID.TID 0000.0001)  MDS_READ_FIELD: opening global file: SSS_monthly.labsea1979
(PID.TID 0000.0001) EXF_SET_FLD: processing field "uwind",  file: u10m.labsea1979
(PID.TID 0000.0001) EXF_SET_FLD:   myIter, count0, count1:         5      1      2
(PID.TID 0000.0001) EXF_SET_FLD:   first, changed, fac:   T   F    0.49316939890710387
(PID.TID 0000.0001) EXF_SET_FLD: field "uwind", it=         5, loading rec=     1
(PID.TID 0000.0001) EXF_SET_FLD:   from file: "u10m.labsea1979"
(PID.TID 0000.0001)  MDS_READ_FIELD: opening global file: u10m.labsea1979
(PID.TID 0000.0001) EXF_SET_FLD: field "uwind", it=         5, loading rec=     2
(PID.TID 0000.0001) EXF_SET_FLD:   from file: "u10m.labsea1979"
(PID.TID 0000.0001)  MDS_READ_FIELD: opening global file: u10m.labsea1979
(PID.TID 0000.0001) EXF_SET_FLD: processing field "vwind",  file: v10m.labsea1979
(PID.TID 0000.0001) EXF_SET_FLD:   myIter, count0, count1:         5      1      2
(PID.TID 0000.0001) EXF_SET_FLD:   first, changed, fac:   T   F    0.49316939890710387
(PID.TID 0000.0001) EXF_SET_FLD: field "vwind", it=         5, loading rec=     1
(PID.TID 0000.0001) EXF_SET_FLD:   from file: "v10m.labsea1979"
(PID.TID 0000.0001)  MDS_READ_FIELD: opening global file: v10m.labsea1979
(PID.TID 0000.0001) EXF_SET_FLD: field "vwind", it=         5, loading rec=     2
(PID.TID 0000.0001) EXF_SET_FLD:   from file: "v10m.labsea1979"
(PID.TID 0000.0001)  MDS_READ_FIELD: opening global file: v10m.labsea1979
(PID.TID 0000.0001) EXF_SET_FLD: processing field "atemp",  file: tair.labsea1979
(PID.TID 0000.0001) EXF_SET_FLD:   myIter, count0, count1:         5      1      2
(PID.TID 0000.0001) EXF_SET_FLD:   first, changed, fac:   T   F    0.49316939890710387
(PID.TID 0000.0001) EXF_SET_FLD: field "atemp", it=         5, loading rec=     1
(PID.TID 0000.0001) EXF_SET_FLD:   from file: "tair.labsea1979"
(PID.TID 0000.0001)  MDS_READ_FIELD: opening global file: tair.labsea1979
(PID.TID 0000.0001) EXF_SET_FLD: field "atemp", it=         5, loading rec=     2
(PID.TID 0000.0001) EXF_SET_FLD:   from file: "tair.labsea1979"
(PID.TID 0000.0001)  MDS_READ_FIELD: opening global file: tair.labsea1979
(PID.TID 0000.0001) EXF_SET_FLD: processing field "aqh",  file: qa.labsea1979
(PID.TID 0000.0001) EXF_SET_FLD:   myIter, count0, count1:         5      1      2
(PID.TID 0000.0001) EXF_SET_FLD:   first, changed, fac:   T   F    0.49316939890710387
(PID.TID 0000.0001) EXF_SET_FLD: field "aqh", it=         5, loading rec=     1
(PID.TID 0000.0001) EXF_SET_FLD:   from file: "qa.labsea1979"
(PID.TID 0000.0001)  MDS_READ_FIELD: opening global file: qa.labsea1979
(PID.TID 0000.0001) EXF_SET_FLD: field "aqh", it=         5, loading rec=     2
(PID.TID 0000.0001) EXF_SET_FLD:   from file: "qa.labsea1979"
(PID.TID 0000.0001)  MDS_READ_FIELD: opening global file: qa.labsea1979
(PID.TID 0000.0001) EXF_SET_FLD: processing field "precip",  file: prate.labsea1979
(PID.TID 0000.0001) EXF_SET_FLD:   myIter, count0, count1:         5      1      2
(PID.TID 0000.0001) EXF_SET_FLD:   first, changed, fac:   T   F    0.49316939890710387
(PID.TID 0000.0001) EXF_SET_FLD: field "precip", it=         5, loading rec=     1
(PID.TID 0000.0001) EXF_SET_FLD:   from file: "prate.labsea1979"
(PID.TID 0000.0001)  MDS_READ_FIELD: opening global file: prate.labsea1979
(PID.TID 0000.0001) EXF_SET_FLD: field "precip", it=         5, loading rec=     2
(PID.TID 0000.0001) EXF_SET_FLD:   from file: "prate.labsea1979"
(PID.TID 0000.0001)  MDS_READ_FIELD: opening global file: prate.labsea1979
(PID.TID 0000.0001) EXF_SET_FLD: processing field "swdown",  file: fsh.labsea1979
(PID.TID 0000.0001) EXF_SET_FLD:   myIter, count0, count1:         5      1      2
(PID.TID 0000.0001) EXF_SET_FLD:   first, changed, fac:   T   F    0.49316939890710387
(PID.TID 0000.0001) EXF_SET_FLD: field "swdown", it=         5, loading rec=     1
(PID.TID 0000.0001) EXF_SET_FLD:   from file: "fsh.labsea1979"
(PID.TID 0000.0001)  MDS_READ_FIELD: opening global file: fsh.labsea1979
(PID.TID 0000.0001) EXF_SET_FLD: field "swdown", it=         5, loading rec=     2
(PID.TID 0000.0001) EXF_SET_FLD:   from file: "fsh.labsea1979"
(PID.TID 0000.0001)  MDS_READ_FIELD: opening global file: fsh.labsea1979
(PID.TID 0000.0001) EXF_SET_FLD: processing field "lwdown",  file: flo.labsea1979
(PID.TID 0000.0001) EXF_SET_FLD:   myIter, count0, count1:         5      1      2
(PID.TID 0000.0001) EXF_SET_FLD:   first, changed, fac:   T   F    0.49316939890710387
(PID.TID 0000.0001) EXF_SET_FLD: field "lwdown", it=         5, loading rec=     1
(PID.TID 0000.0001) EXF_SET_FLD:   from file: "flo.labsea1979"
(PID.TID 0000.0001)  MDS_READ_FIELD: opening global file: flo.labsea1979
(PID.TID 0000.0001) EXF_SET_FLD: field "lwdown", it=         5, loading rec=     2
(PID.TID 0000.0001) EXF_SET_FLD:   from file: "flo.labsea1979"
(PID.TID 0000.0001)  MDS_READ_FIELD: opening global file: flo.labsea1979
DEBUG_STATS_RL: Uice pre  iter (SEAICE_LSR  1)  min= -9.02121933428159E-03
DEBUG_STATS_RL: Uice pre  iter (SEAICE_LSR  1)  max=  2.19445684647109E-01
DEBUG_STATS_RL: Uice pre  iter (SEAICE_LSR  1) mean=  6.96639305502532E-02
DEBUG_STATS_RL: Uice pre  iter (SEAICE_LSR  1) S.D.=  7.25590715280224E-02
DEBUG_STATS_RL: Vice pre  iter (SEAICE_LSR  1)  min= -1.73112057819563E-01
DEBUG_STATS_RL: Vice pre  iter (SEAICE_LSR  1)  max=  1.05174802576008E-01
DEBUG_STATS_RL: Vice pre  iter (SEAICE_LSR  1) mean= -3.44957645455127E-02
DEBUG_STATS_RL: Vice pre  iter (SEAICE_LSR  1) S.D.=  5.17027322842165E-02
DEBUG_STATS_RL: Uice pre  iter (SEAICE_LSR  2)  min= -9.93295031152210E-03
DEBUG_STATS_RL: Uice pre  iter (SEAICE_LSR  2)  max=  2.37649472779152E-01
DEBUG_STATS_RL: Uice pre  iter (SEAICE_LSR  2) mean=  7.08960993522900E-02
DEBUG_STATS_RL: Uice pre  iter (SEAICE_LSR  2) S.D.=  7.51814019583860E-02
DEBUG_STATS_RL: Vice pre  iter (SEAICE_LSR  2)  min= -1.73458139241626E-01
DEBUG_STATS_RL: Vice pre  iter (SEAICE_LSR  2)  max=  1.02503634704982E-01
DEBUG_STATS_RL: Vice pre  iter (SEAICE_LSR  2) mean= -3.89801386768760E-02
DEBUG_STATS_RL: Vice pre  iter (SEAICE_LSR  2) S.D.=  5.44920749395038E-02
DEBUG_STATS_RL:                EtaN (DYNAMICS)  min= -1.29709672821213E-01
DEBUG_STATS_RL:                EtaN (DYNAMICS)  max=  3.25626876398477E-01
DEBUG_STATS_RL:                EtaN (DYNAMICS) mean= -3.00841690122536E-03
DEBUG_STATS_RL:                EtaN (DYNAMICS) S.D.=  7.54180814594036E-02
DEBUG_STATS_RL:                Uvel (DYNAMICS)  min= -3.64296443204224E-02
DEBUG_STATS_RL:                Uvel (DYNAMICS)  max=  8.91662112566489E-02
DEBUG_STATS_RL:                Uvel (DYNAMICS) mean=  5.18186102505262E-03
DEBUG_STATS_RL:                Uvel (DYNAMICS) S.D.=  1.36791834404111E-02
DEBUG_STATS_RL:                Vvel (DYNAMICS)  min= -8.48427067731397E-02
DEBUG_STATS_RL:                Vvel (DYNAMICS)  max=  7.15709637633448E-02
DEBUG_STATS_RL:                Vvel (DYNAMICS) mean= -6.25663991250223E-04
DEBUG_STATS_RL:                Vvel (DYNAMICS) S.D.=  1.65568599029307E-02
DEBUG_STATS_RL:                Wvel (DYNAMICS)  min= -2.02998023749463E-04
DEBUG_STATS_RL:                Wvel (DYNAMICS)  max=  3.07634744219620E-04
DEBUG_STATS_RL:                Wvel (DYNAMICS) mean= -2.14485636605179E-07
DEBUG_STATS_RL:                Wvel (DYNAMICS) S.D.=  2.56514188295233E-05
DEBUG_STATS_RL:               Theta (DYNAMICS)  min= -1.95891909892377E+00
DEBUG_STATS_RL:               Theta (DYNAMICS)  max=  1.32575107273067E+01
DEBUG_STATS_RL:               Theta (DYNAMICS) mean=  2.41560973729717E+00
DEBUG_STATS_RL:               Theta (DYNAMICS) S.D.=  2.57506629522921E+00
DEBUG_STATS_RL:                Salt (DYNAMICS)  min=  2.76241835718781E+01
DEBUG_STATS_RL:                Salt (DYNAMICS)  max=  3.54512322319690E+01
DEBUG_STATS_RL:                Salt (DYNAMICS) mean=  3.39367610972827E+01
DEBUG_STATS_RL:                Salt (DYNAMICS) S.D.=  1.15400523729775E+00
DEBUG_STATS_RL:                  Gu (DYNAMICS)  min= -3.40661284878781E-02
DEBUG_STATS_RL:                  Gu (DYNAMICS)  max=  1.09592409505601E-01
DEBUG_STATS_RL:                  Gu (DYNAMICS) mean=  3.43340148231612E-03
DEBUG_STATS_RL:                  Gu (DYNAMICS) S.D.=  1.52106643070904E-02
DEBUG_STATS_RL:                  Gv (DYNAMICS)  min= -1.19743996000496E-01
DEBUG_STATS_RL:                  Gv (DYNAMICS)  max=  5.31755908727337E-02
DEBUG_STATS_RL:                  Gv (DYNAMICS) mean= -6.43607759844673E-03
DEBUG_STATS_RL:                  Gv (DYNAMICS) S.D.=  1.74595586593132E-02
DEBUG_STATS_RL:               GuNm1 (DYNAMICS)  min= -2.94347299884301E-07
DEBUG_STATS_RL:               GuNm1 (DYNAMICS)  max=  1.78770581560375E-07
DEBUG_STATS_RL:               GuNm1 (DYNAMICS) mean= -3.06311171945198E-09
DEBUG_STATS_RL:               GuNm1 (DYNAMICS) S.D.=  4.19614199163276E-08
DEBUG_STATS_RL:               GvNm1 (DYNAMICS)  min= -1.82273635415880E-07
DEBUG_STATS_RL:               GvNm1 (DYNAMICS)  max=  1.24273330978528E-07
DEBUG_STATS_RL:               GvNm1 (DYNAMICS) mean= -1.05360009952046E-09
DEBUG_STATS_RL:               GvNm1 (DYNAMICS) S.D.=  3.58773704868012E-08
DEBUG_STATS_RL:               GtNm1 (DYNAMICS)  min=  0.00000000000000E+00
DEBUG_STATS_RL:               GtNm1 (DYNAMICS)  max=  0.00000000000000E+00
DEBUG_STATS_RL:               GtNm1 (DYNAMICS) mean=  0.00000000000000E+00
DEBUG_STATS_RL:               GtNm1 (DYNAMICS) S.D.=  0.00000000000000E+00
DEBUG_STATS_RL:               GsNm1 (DYNAMICS)  min=  0.00000000000000E+00
DEBUG_STATS_RL:               GsNm1 (DYNAMICS)  max=  0.00000000000000E+00
DEBUG_STATS_RL:               GsNm1 (DYNAMICS) mean=  0.00000000000000E+00
DEBUG_STATS_RL:               GsNm1 (DYNAMICS) S.D.=  0.00000000000000E+00
(PID.TID 0000.0001) SOLVE_FOR_PRESSURE: putPmEinXvector =    F
DEBUG_STATS_RL:    cg2d_b (SOLVE_FOR_PRESSURE)  min= -7.45833771571459E+03
DEBUG_STATS_RL:    cg2d_b (SOLVE_FOR_PRESSURE)  max=  2.17494903027769E+03
DEBUG_STATS_RL:    cg2d_b (SOLVE_FOR_PRESSURE) mean=  4.18935997004155E-13
DEBUG_STATS_RL:    cg2d_b (SOLVE_FOR_PRESSURE) S.D.=  9.06377010650268E+02
 cg2d: Sum(rhs),rhsMax =   8.29197821516914E-15  1.20041496847834E+00
DEBUG_STATS_RL:    cg2d_x (SOLVE_FOR_PRESSURE)  min= -1.23196163368130E+00
DEBUG_STATS_RL:    cg2d_x (SOLVE_FOR_PRESSURE)  max=  3.23727429689848E+00
DEBUG_STATS_RL:    cg2d_x (SOLVE_FOR_PRESSURE) mean= -3.45194761148230E-02
DEBUG_STATS_RL:    cg2d_x (SOLVE_FOR_PRESSURE) S.D.=  7.10912240392561E-01
DEBUG_STATS_RL:          Uvel (THERMODYNAMICS)  min= -3.59096386964102E-02
DEBUG_STATS_RL:          Uvel (THERMODYNAMICS)  max=  1.01288605318195E-01
DEBUG_STATS_RL:          Uvel (THERMODYNAMICS) mean=  5.06442107691443E-03
DEBUG_STATS_RL:          Uvel (THERMODYNAMICS) S.D.=  1.40087544095653E-02
DEBUG_STATS_RL:          Vvel (THERMODYNAMICS)  min= -1.10756263988798E-01
DEBUG_STATS_RL:          Vvel (THERMODYNAMICS)  max=  7.07208418107748E-02
DEBUG_STATS_RL:          Vvel (THERMODYNAMICS) mean= -2.17557054828444E-03
DEBUG_STATS_RL:          Vvel (THERMODYNAMICS) S.D.=  1.80912833066385E-02
DEBUG_STATS_RL:          Wvel (THERMODYNAMICS)  min= -2.43811460414301E-04
DEBUG_STATS_RL:          Wvel (THERMODYNAMICS)  max=  3.28816353261790E-04
DEBUG_STATS_RL:          Wvel (THERMODYNAMICS) mean= -1.37923543342930E-07
DEBUG_STATS_RL:          Wvel (THERMODYNAMICS) S.D.=  2.75149300864468E-05
DEBUG_STATS_RL:         Theta (THERMODYNAMICS)  min= -1.96015217723737E+00
DEBUG_STATS_RL:         Theta (THERMODYNAMICS)  max=  1.32512671183370E+01
DEBUG_STATS_RL:         Theta (THERMODYNAMICS) mean=  2.41531606071968E+00
DEBUG_STATS_RL:         Theta (THERMODYNAMICS) S.D.=  2.57483151675911E+00
DEBUG_STATS_RL:          Salt (THERMODYNAMICS)  min=  2.76290307531745E+01
DEBUG_STATS_RL:          Salt (THERMODYNAMICS)  max=  3.54512307060718E+01
DEBUG_STATS_RL:          Salt (THERMODYNAMICS) mean=  3.39367446276238E+01
DEBUG_STATS_RL:          Salt (THERMODYNAMICS) S.D.=  1.15382313156805E+00
DEBUG_STATS_RL:         GtNm1 (THERMODYNAMICS)  min=  0.00000000000000E+00
DEBUG_STATS_RL:         GtNm1 (THERMODYNAMICS)  max=  0.00000000000000E+00
DEBUG_STATS_RL:         GtNm1 (THERMODYNAMICS) mean=  0.00000000000000E+00
DEBUG_STATS_RL:         GtNm1 (THERMODYNAMICS) S.D.=  0.00000000000000E+00
DEBUG_STATS_RL:         GsNm1 (THERMODYNAMICS)  min=  0.00000000000000E+00
DEBUG_STATS_RL:         GsNm1 (THERMODYNAMICS)  max=  0.00000000000000E+00
DEBUG_STATS_RL:         GsNm1 (THERMODYNAMICS) mean=  0.00000000000000E+00
DEBUG_STATS_RL:         GsNm1 (THERMODYNAMICS) S.D.=  0.00000000000000E+00
(PID.TID 0000.0001)  MDS_WRITE_FIELD: it,rec,kS,kL,kH=       1     2   1   1   1 file=m_sst_step.0000000001
(PID.TID 0000.0001)  MDS_READ_FIELD: opening global file: xx_atemp.effective.0000000001.data
(PID.TID 0000.0001) EXF_SET_FLD: processing field "climsss",  file: SSS_monthly.labsea1979
(PID.TID 0000.0001) EXF_SET_FLD:   myIter, count0, count1:         6      1      2
(PID.TID 0000.0001) EXF_SET_FLD:   first, changed, fac:   F   F    0.49180327868852458
(PID.TID 0000.0001) EXF_SET_FLD: processing field "uwind",  file: u10m.labsea1979
(PID.TID 0000.0001) EXF_SET_FLD:   myIter, count0, count1:         6      1      2
(PID.TID 0000.0001) EXF_SET_FLD:   first, changed, fac:   F   F    0.49180327868852458
(PID.TID 0000.0001) EXF_SET_FLD: processing field "vwind",  file: v10m.labsea1979
(PID.TID 0000.0001) EXF_SET_FLD:   myIter, count0, count1:         6      1      2
(PID.TID 0000.0001) EXF_SET_FLD:   first, changed, fac:   F   F    0.49180327868852458
(PID.TID 0000.0001) EXF_SET_FLD: processing field "atemp",  file: tair.labsea1979
(PID.TID 0000.0001) EXF_SET_FLD:   myIter, count0, count1:         6      1      2
(PID.TID 0000.0001) EXF_SET_FLD:   first, changed, fac:   F   F    0.49180327868852458
(PID.TID 0000.0001) EXF_SET_FLD: processing field "aqh",  file: qa.labsea1979
(PID.TID 0000.0001) EXF_SET_FLD:   myIter, count0, count1:         6      1      2
(PID.TID 0000.0001) EXF_SET_FLD:   first, changed, fac:   F   F    0.49180327868852458
(PID.TID 0000.0001) EXF_SET_FLD: processing field "precip",  file: prate.labsea1979
(PID.TID 0000.0001) EXF_SET_FLD:   myIter, count0, count1:         6      1      2
(PID.TID 0000.0001) EXF_SET_FLD:   first, changed, fac:   F   F    0.49180327868852458
(PID.TID 0000.0001) EXF_SET_FLD: processing field "swdown",  file: fsh.labsea1979
(PID.TID 0000.0001) EXF_SET_FLD:   myIter, count0, count1:         6      1      2
(PID.TID 0000.0001) EXF_SET_FLD:   first, changed, fac:   F   F    0.49180327868852458
(PID.TID 0000.0001) EXF_SET_FLD: processing field "lwdown",  file: flo.labsea1979
(PID.TID 0000.0001) EXF_SET_FLD:   myIter, count0, count1:         6      1      2
(PID.TID 0000.0001) EXF_SET_FLD:   first, changed, fac:   F   F    0.49180327868852458
DEBUG_STATS_RL: Uice pre  iter (SEAICE_LSR  1)  min= -1.19106759196614E-02
DEBUG_STATS_RL: Uice pre  iter (SEAICE_LSR  1)  max=  2.40859973799500E-01
DEBUG_STATS_RL: Uice pre  iter (SEAICE_LSR  1) mean=  7.02597534860948E-02
DEBUG_STATS_RL: Uice pre  iter (SEAICE_LSR  1) S.D.=  7.57773428259753E-02
DEBUG_STATS_RL: Vice pre  iter (SEAICE_LSR  1)  min= -1.74132342678207E-01
DEBUG_STATS_RL: Vice pre  iter (SEAICE_LSR  1)  max=  9.66358613081399E-02
DEBUG_STATS_RL: Vice pre  iter (SEAICE_LSR  1) mean= -4.28491368242810E-02
DEBUG_STATS_RL: Vice pre  iter (SEAICE_LSR  1) S.D.=  5.63763392291550E-02
DEBUG_STATS_RL: Uice pre  iter (SEAICE_LSR  2)  min= -1.30564509125757E-02
DEBUG_STATS_RL: Uice pre  iter (SEAICE_LSR  2)  max=  2.47901039964918E-01
DEBUG_STATS_RL: Uice pre  iter (SEAICE_LSR  2) mean=  6.80717062410296E-02
DEBUG_STATS_RL: Uice pre  iter (SEAICE_LSR  2) S.D.=  7.48548542542582E-02
DEBUG_STATS_RL: Vice pre  iter (SEAICE_LSR  2)  min= -1.68314830999124E-01
DEBUG_STATS_RL: Vice pre  iter (SEAICE_LSR  2)  max=  8.87290074915900E-02
DEBUG_STATS_RL: Vice pre  iter (SEAICE_LSR  2) mean= -4.61137817409455E-02
DEBUG_STATS_RL: Vice pre  iter (SEAICE_LSR  2) S.D.=  5.74118961796309E-02
DEBUG_STATS_RL:                EtaN (DYNAMICS)  min= -1.25510578434462E-01
DEBUG_STATS_RL:                EtaN (DYNAMICS)  max=  3.29809109672203E-01
DEBUG_STATS_RL:                EtaN (DYNAMICS) mean= -3.51679735470302E-03
DEBUG_STATS_RL:                EtaN (DYNAMICS) S.D.=  7.24267737471536E-02
DEBUG_STATS_RL:                Uvel (DYNAMICS)  min= -3.59096386964102E-02
DEBUG_STATS_RL:                Uvel (DYNAMICS)  max=  1.01288605318195E-01
DEBUG_STATS_RL:                Uvel (DYNAMICS) mean=  5.06442107691443E-03
DEBUG_STATS_RL:                Uvel (DYNAMICS) S.D.=  1.40087544095653E-02
DEBUG_STATS_RL:                Vvel (DYNAMICS)  min= -1.10756263988798E-01
DEBUG_STATS_RL:                Vvel (DYNAMICS)  max=  7.07208418107748E-02
DEBUG_STATS_RL:                Vvel (DYNAMICS) mean= -2.17557054828444E-03
DEBUG_STATS_RL:                Vvel (DYNAMICS) S.D.=  1.80912833066385E-02
DEBUG_STATS_RL:                Wvel (DYNAMICS)  min= -2.43811460414301E-04
DEBUG_STATS_RL:                Wvel (DYNAMICS)  max=  3.28816353261790E-04
DEBUG_STATS_RL:                Wvel (DYNAMICS) mean= -1.37923543342930E-07
DEBUG_STATS_RL:                Wvel (DYNAMICS) S.D.=  2.75149300864468E-05
DEBUG_STATS_RL:               Theta (DYNAMICS)  min= -1.96015217723737E+00
DEBUG_STATS_RL:               Theta (DYNAMICS)  max=  1.32512671183370E+01
DEBUG_STATS_RL:               Theta (DYNAMICS) mean=  2.41531606071968E+00
DEBUG_STATS_RL:               Theta (DYNAMICS) S.D.=  2.57483151675911E+00
DEBUG_STATS_RL:                Salt (DYNAMICS)  min=  2.76290307531745E+01
DEBUG_STATS_RL:                Salt (DYNAMICS)  max=  3.54512307060718E+01
DEBUG_STATS_RL:                Salt (DYNAMICS) mean=  3.39367446276238E+01
DEBUG_STATS_RL:                Salt (DYNAMICS) S.D.=  1.15382313156805E+00
DEBUG_STATS_RL:                  Gu (DYNAMICS)  min= -4.45840116890899E-02
DEBUG_STATS_RL:                  Gu (DYNAMICS)  max=  1.13252404039500E-01
DEBUG_STATS_RL:                  Gu (DYNAMICS) mean=  3.02808241161229E-03
DEBUG_STATS_RL:                  Gu (DYNAMICS) S.D.=  1.59063121238893E-02
DEBUG_STATS_RL:                  Gv (DYNAMICS)  min= -1.34630447324912E-01
DEBUG_STATS_RL:                  Gv (DYNAMICS)  max=  4.81174890382835E-02
DEBUG_STATS_RL:                  Gv (DYNAMICS) mean= -7.41639241987065E-03
DEBUG_STATS_RL:                  Gv (DYNAMICS) S.D.=  1.85638365104700E-02
DEBUG_STATS_RL:               GuNm1 (DYNAMICS)  min= -3.33271036892904E-07
DEBUG_STATS_RL:               GuNm1 (DYNAMICS)  max=  1.87479663955270E-07
DEBUG_STATS_RL:               GuNm1 (DYNAMICS) mean= -3.31200046769952E-09
DEBUG_STATS_RL:               GuNm1 (DYNAMICS) S.D.=  4.08419141881971E-08
DEBUG_STATS_RL:               GvNm1 (DYNAMICS)  min= -2.04912919624491E-07
DEBUG_STATS_RL:               GvNm1 (DYNAMICS)  max=  1.56710147054438E-07
DEBUG_STATS_RL:               GvNm1 (DYNAMICS) mean= -8.96938696731291E-10
DEBUG_STATS_RL:               GvNm1 (DYNAMICS) S.D.=  3.95873164870957E-08
DEBUG_STATS_RL:               GtNm1 (DYNAMICS)  min=  0.00000000000000E+00
DEBUG_STATS_RL:               GtNm1 (DYNAMICS)  max=  0.00000000000000E+00
DEBUG_STATS_RL:               GtNm1 (DYNAMICS) mean=  0.00000000000000E+00
DEBUG_STATS_RL:               GtNm1 (DYNAMICS) S.D.=  0.00000000000000E+00
DEBUG_STATS_RL:               GsNm1 (DYNAMICS)  min=  0.00000000000000E+00
DEBUG_STATS_RL:               GsNm1 (DYNAMICS)  max=  0.00000000000000E+00
DEBUG_STATS_RL:               GsNm1 (DYNAMICS) mean=  0.00000000000000E+00
DEBUG_STATS_RL:               GsNm1 (DYNAMICS) S.D.=  0.00000000000000E+00
DEBUG_STATS_RL:    cg2d_b (SOLVE_FOR_PRESSURE)  min= -7.43169656861245E+03
DEBUG_STATS_RL:    cg2d_b (SOLVE_FOR_PRESSURE)  max=  2.17598296942634E+03
DEBUG_STATS_RL:    cg2d_b (SOLVE_FOR_PRESSURE) mean=  6.96331881044898E-13
DEBUG_STATS_RL:    cg2d_b (SOLVE_FOR_PRESSURE) S.D.=  9.02750100849735E+02
 cg2d: Sum(rhs),rhsMax =   1.41067713066434E-14  1.19612709187932E+00
DEBUG_STATS_RL:    cg2d_x (SOLVE_FOR_PRESSURE)  min= -1.18794061890904E+00
DEBUG_STATS_RL:    cg2d_x (SOLVE_FOR_PRESSURE)  max=  3.24511049575726E+00
DEBUG_STATS_RL:    cg2d_x (SOLVE_FOR_PRESSURE) mean= -3.88654400025836E-02
DEBUG_STATS_RL:    cg2d_x (SOLVE_FOR_PRESSURE) S.D.=  6.81167535252279E-01
DEBUG_STATS_RL:          Uvel (THERMODYNAMICS)  min= -3.57601727936033E-02
DEBUG_STATS_RL:          Uvel (THERMODYNAMICS)  max=  1.04775938290593E-01
DEBUG_STATS_RL:          Uvel (THERMODYNAMICS) mean=  4.39725630125182E-03
DEBUG_STATS_RL:          Uvel (THERMODYNAMICS) S.D.=  1.39028540310335E-02
DEBUG_STATS_RL:          Vvel (THERMODYNAMICS)  min= -1.27584762387762E-01
DEBUG_STATS_RL:          Vvel (THERMODYNAMICS)  max=  6.50083276838834E-02
DEBUG_STATS_RL:          Vvel (THERMODYNAMICS) mean= -3.36887217582008E-03
DEBUG_STATS_RL:          Vvel (THERMODYNAMICS) S.D.=  1.85890275650197E-02
DEBUG_STATS_RL:          Wvel (THERMODYNAMICS)  min= -2.67954696014334E-04
DEBUG_STATS_RL:          Wvel (THERMODYNAMICS)  max=  3.29804232734301E-04
DEBUG_STATS_RL:          Wvel (THERMODYNAMICS) mean= -4.85616750767614E-08
DEBUG_STATS_RL:          Wvel (THERMODYNAMICS) S.D.=  2.84164537902804E-05
DEBUG_STATS_RL:         Theta (THERMODYNAMICS)  min= -1.95963016104374E+00
DEBUG_STATS_RL:         Theta (THERMODYNAMICS)  max=  1.32396343409662E+01
DEBUG_STATS_RL:         Theta (THERMODYNAMICS) mean=  2.41506584132490E+00
DEBUG_STATS_RL:         Theta (THERMODYNAMICS) S.D.=  2.57443936967394E+00
DEBUG_STATS_RL:          Salt (THERMODYNAMICS)  min=  2.76338867569799E+01
DEBUG_STATS_RL:          Salt (THERMODYNAMICS)  max=  3.54511617149686E+01
DEBUG_STATS_RL:          Salt (THERMODYNAMICS) mean=  3.39367496241626E+01
DEBUG_STATS_RL:          Salt (THERMODYNAMICS) S.D.=  1.15359229307638E+00
DEBUG_STATS_RL:         GtNm1 (THERMODYNAMICS)  min=  0.00000000000000E+00
DEBUG_STATS_RL:         GtNm1 (THERMODYNAMICS)  max=  0.00000000000000E+00
DEBUG_STATS_RL:         GtNm1 (THERMODYNAMICS) mean=  0.00000000000000E+00
DEBUG_STATS_RL:         GtNm1 (THERMODYNAMICS) S.D.=  0.00000000000000E+00
DEBUG_STATS_RL:         GsNm1 (THERMODYNAMICS)  min=  0.00000000000000E+00
DEBUG_STATS_RL:         GsNm1 (THERMODYNAMICS)  max=  0.00000000000000E+00
DEBUG_STATS_RL:         GsNm1 (THERMODYNAMICS) mean=  0.00000000000000E+00
DEBUG_STATS_RL:         GsNm1 (THERMODYNAMICS) S.D.=  0.00000000000000E+00
(PID.TID 0000.0001)  MDS_WRITE_FIELD: it,rec,kS,kL,kH=       1     3   1   1   1 file=m_sst_step.0000000001
(PID.TID 0000.0001)  MDS_READ_FIELD: opening global file: xx_atemp.effective.0000000001.data
(PID.TID 0000.0001) EXF_SET_FLD: processing field "climsss",  file: SSS_monthly.labsea1979
(PID.TID 0000.0001) EXF_SET_FLD:   myIter, count0, count1:         7      1      2
(PID.TID 0000.0001) EXF_SET_FLD:   first, changed, fac:   F   F    0.49043715846994540
(PID.TID 0000.0001) EXF_SET_FLD: processing field "uwind",  file: u10m.labsea1979
(PID.TID 0000.0001) EXF_SET_FLD:   myIter, count0, count1:         7      1      2
(PID.TID 0000.0001) EXF_SET_FLD:   first, changed, fac:   F   F    0.49043715846994540
(PID.TID 0000.0001) EXF_SET_FLD: processing field "vwind",  file: v10m.labsea1979
(PID.TID 0000.0001) EXF_SET_FLD:   myIter, count0, count1:         7      1      2
(PID.TID 0000.0001) EXF_SET_FLD:   first, changed, fac:   F   F    0.49043715846994540
(PID.TID 0000.0001) EXF_SET_FLD: processing field "atemp",  file: tair.labsea1979
(PID.TID 0000.0001) EXF_SET_FLD:   myIter, count0, count1:         7      1      2
(PID.TID 0000.0001) EXF_SET_FLD:   first, changed, fac:   F   F    0.49043715846994540
(PID.TID 0000.0001) EXF_SET_FLD: processing field "aqh",  file: qa.labsea1979
(PID.TID 0000.0001) EXF_SET_FLD:   myIter, count0, count1:         7      1      2
(PID.TID 0000.0001) EXF_SET_FLD:   first, changed, fac:   F   F    0.49043715846994540
(PID.TID 0000.0001) EXF_SET_FLD: processing field "precip",  file: prate.labsea1979
(PID.TID 0000.0001) EXF_SET_FLD:   myIter, count0, count1:         7      1      2
(PID.TID 0000.0001) EXF_SET_FLD:   first, changed, fac:   F   F    0.49043715846994540
(PID.TID 0000.0001) EXF_SET_FLD: processing field "swdown",  file: fsh.labsea1979
(PID.TID 0000.0001) EXF_SET_FLD:   myIter, count0, count1:         7      1      2
(PID.TID 0000.0001) EXF_SET_FLD:   first, changed, fac:   F   F    0.49043715846994540
(PID.TID 0000.0001) EXF_SET_FLD: processing field "lwdown",  file: flo.labsea1979
(PID.TID 0000.0001) EXF_SET_FLD:   myIter, count0, count1:         7      1      2
(PID.TID 0000.0001) EXF_SET_FLD:   first, changed, fac:   F   F    0.49043715846994540
DEBUG_STATS_RL: Uice pre  iter (SEAICE_LSR  1)  min= -1.54549194525866E-02
DEBUG_STATS_RL: Uice pre  iter (SEAICE_LSR  1)  max=  2.53524286292195E-01
DEBUG_STATS_RL: Uice pre  iter (SEAICE_LSR  1) mean=  6.68799365320119E-02
DEBUG_STATS_RL: Uice pre  iter (SEAICE_LSR  1) S.D.=  7.54478852962580E-02
DEBUG_STATS_RL: Vice pre  iter (SEAICE_LSR  1)  min= -1.68373183021268E-01
DEBUG_STATS_RL: Vice pre  iter (SEAICE_LSR  1)  max=  8.10859368452303E-02
DEBUG_STATS_RL: Vice pre  iter (SEAICE_LSR  1) mean= -4.94905385200998E-02
DEBUG_STATS_RL: Vice pre  iter (SEAICE_LSR  1) S.D.=  5.89447951203408E-02
DEBUG_STATS_RL: Uice pre  iter (SEAICE_LSR  2)  min= -1.68104910559763E-02
DEBUG_STATS_RL: Uice pre  iter (SEAICE_LSR  2)  max=  2.51381266335640E-01
DEBUG_STATS_RL: Uice pre  iter (SEAICE_LSR  2) mean=  6.26056742417120E-02
DEBUG_STATS_RL: Uice pre  iter (SEAICE_LSR  2) S.D.=  7.23215228186589E-02
DEBUG_STATS_RL: Vice pre  iter (SEAICE_LSR  2)  min= -1.70146515867233E-01
DEBUG_STATS_RL: Vice pre  iter (SEAICE_LSR  2)  max=  7.01571636850258E-02
DEBUG_STATS_RL: Vice pre  iter (SEAICE_LSR  2) mean= -5.12009841743803E-02
DEBUG_STATS_RL: Vice pre  iter (SEAICE_LSR  2) S.D.=  5.84735965012139E-02
DEBUG_STATS_RL:                EtaN (DYNAMICS)  min= -1.21025777222894E-01
DEBUG_STATS_RL:                EtaN (DYNAMICS)  max=  3.30607450971643E-01
DEBUG_STATS_RL:                EtaN (DYNAMICS) mean= -3.95955825447081E-03
DEBUG_STATS_RL:                EtaN (DYNAMICS) S.D.=  6.93964235759688E-02
DEBUG_STATS_RL:                Uvel (DYNAMICS)  min= -3.57601727936033E-02
DEBUG_STATS_RL:                Uvel (DYNAMICS)  max=  1.04775938290593E-01
DEBUG_STATS_RL:                Uvel (DYNAMICS) mean=  4.39725630125182E-03
DEBUG_STATS_RL:                Uvel (DYNAMICS) S.D.=  1.39028540310335E-02
DEBUG_STATS_RL:                Vvel (DYNAMICS)  min= -1.27584762387762E-01
DEBUG_STATS_RL:                Vvel (DYNAMICS)  max=  6.50083276838834E-02
DEBUG_STATS_RL:                Vvel (DYNAMICS) mean= -3.36887217582008E-03
DEBUG_STATS_RL:                Vvel (DYNAMICS) S.D.=  1.85890275650197E-02
DEBUG_STATS_RL:                Wvel (DYNAMICS)  min= -2.67954696014334E-04
DEBUG_STATS_RL:                Wvel (DYNAMICS)  max=  3.29804232734301E-04
DEBUG_STATS_RL:                Wvel (DYNAMICS) mean= -4.85616750767614E-08
DEBUG_STATS_RL:                Wvel (DYNAMICS) S.D.=  2.84164537902804E-05
DEBUG_STATS_RL:               Theta (DYNAMICS)  min= -1.95963016104374E+00
DEBUG_STATS_RL:               Theta (DYNAMICS)  max=  1.32396343409662E+01
DEBUG_STATS_RL:               Theta (DYNAMICS) mean=  2.41506584132490E+00
DEBUG_STATS_RL:               Theta (DYNAMICS) S.D.=  2.57443936967394E+00
DEBUG_STATS_RL:                Salt (DYNAMICS)  min=  2.76338867569799E+01
DEBUG_STATS_RL:                Salt (DYNAMICS)  max=  3.54511617149686E+01
DEBUG_STATS_RL:                Salt (DYNAMICS) mean=  3.39367496241626E+01
DEBUG_STATS_RL:                Salt (DYNAMICS) S.D.=  1.15359229307638E+00
DEBUG_STATS_RL:                  Gu (DYNAMICS)  min= -5.18639383664093E-02
DEBUG_STATS_RL:                  Gu (DYNAMICS)  max=  1.08500044377568E-01
DEBUG_STATS_RL:                  Gu (DYNAMICS) mean=  2.22152146945400E-03
DEBUG_STATS_RL:                  Gu (DYNAMICS) S.D.=  1.62488741545267E-02
DEBUG_STATS_RL:                  Gv (DYNAMICS)  min= -1.40216393355448E-01
DEBUG_STATS_RL:                  Gv (DYNAMICS)  max=  4.07135165171732E-02
DEBUG_STATS_RL:                  Gv (DYNAMICS) mean= -7.84361289825861E-03
DEBUG_STATS_RL:                  Gv (DYNAMICS) S.D.=  1.86090017356288E-02
DEBUG_STATS_RL:               GuNm1 (DYNAMICS)  min= -3.48473911940034E-07
DEBUG_STATS_RL:               GuNm1 (DYNAMICS)  max=  1.90416017948021E-07
DEBUG_STATS_RL:               GuNm1 (DYNAMICS) mean= -3.12306477014106E-09
DEBUG_STATS_RL:               GuNm1 (DYNAMICS) S.D.=  4.09417632400134E-08
DEBUG_STATS_RL:               GvNm1 (DYNAMICS)  min= -2.15359173477236E-07
DEBUG_STATS_RL:               GvNm1 (DYNAMICS)  max=  1.82438063100004E-07
DEBUG_STATS_RL:               GvNm1 (DYNAMICS) mean= -6.53519601921780E-10
DEBUG_STATS_RL:               GvNm1 (DYNAMICS) S.D.=  4.16452354556348E-08
DEBUG_STATS_RL:               GtNm1 (DYNAMICS)  min=  0.00000000000000E+00
DEBUG_STATS_RL:               GtNm1 (DYNAMICS)  max=  0.00000000000000E+00
DEBUG_STATS_RL:               GtNm1 (DYNAMICS) mean=  0.00000000000000E+00
DEBUG_STATS_RL:               GtNm1 (DYNAMICS) S.D.=  0.00000000000000E+00
DEBUG_STATS_RL:               GsNm1 (DYNAMICS)  min=  0.00000000000000E+00
DEBUG_STATS_RL:               GsNm1 (DYNAMICS)  max=  0.00000000000000E+00
DEBUG_STATS_RL:               GsNm1 (DYNAMICS) mean=  0.00000000000000E+00
DEBUG_STATS_RL:               GsNm1 (DYNAMICS) S.D.=  0.00000000000000E+00
DEBUG_STATS_RL:    cg2d_b (SOLVE_FOR_PRESSURE)  min= -7.37985604508148E+03
DEBUG_STATS_RL:    cg2d_b (SOLVE_FOR_PRESSURE)  max=  2.18366607280435E+03
DEBUG_STATS_RL:    cg2d_b (SOLVE_FOR_PRESSURE) mean=  6.18645875268461E-13
DEBUG_STATS_RL:    cg2d_b (SOLVE_FOR_PRESSURE) S.D.=  8.98963545839594E+02
 cg2d: Sum(rhs),rhsMax =   1.34267597040605E-14  1.18778339080378E+00
DEBUG_STATS_RL:    cg2d_x (SOLVE_FOR_PRESSURE)  min= -1.13929441834640E+00
DEBUG_STATS_RL:    cg2d_x (SOLVE_FOR_PRESSURE)  max=  3.20616731162253E+00
DEBUG_STATS_RL:    cg2d_x (SOLVE_FOR_PRESSURE) mean= -4.15672442271453E-02
DEBUG_STATS_RL:    cg2d_x (SOLVE_FOR_PRESSURE) S.D.=  6.51074617232215E-01
DEBUG_STATS_RL:          Uvel (THERMODYNAMICS)  min= -4.34802359621465E-02
DEBUG_STATS_RL:          Uvel (THERMODYNAMICS)  max=  9.99752242998808E-02
DEBUG_STATS_RL:          Uvel (THERMODYNAMICS) mean=  3.48264152589957E-03
DEBUG_STATS_RL:          Uvel (THERMODYNAMICS) S.D.=  1.35343125506116E-02
DEBUG_STATS_RL:          Vvel (THERMODYNAMICS)  min= -1.33439207289254E-01
DEBUG_STATS_RL:          Vvel (THERMODYNAMICS)  max=  5.60260700766945E-02
DEBUG_STATS_RL:          Vvel (THERMODYNAMICS) mean= -4.02696574872961E-03
DEBUG_STATS_RL:          Vvel (THERMODYNAMICS) S.D.=  1.80273334212797E-02
DEBUG_STATS_RL:          Wvel (THERMODYNAMICS)  min= -2.73348162229354E-04
DEBUG_STATS_RL:          Wvel (THERMODYNAMICS)  max=  3.13596923283671E-04
DEBUG_STATS_RL:          Wvel (THERMODYNAMICS) mean=  4.73709411313520E-08
DEBUG_STATS_RL:          Wvel (THERMODYNAMICS) S.D.=  2.82661454219204E-05
DEBUG_STATS_RL:         Theta (THERMODYNAMICS)  min= -1.95943609422387E+00
DEBUG_STATS_RL:         Theta (THERMODYNAMICS)  max=  1.32225113409295E+01
DEBUG_STATS_RL:         Theta (THERMODYNAMICS) mean=  2.41480286619418E+00
DEBUG_STATS_RL:         Theta (THERMODYNAMICS) S.D.=  2.57398860030337E+00
DEBUG_STATS_RL:          Salt (THERMODYNAMICS)  min=  2.76387468555707E+01
DEBUG_STATS_RL:          Salt (THERMODYNAMICS)  max=  3.54510358217953E+01
DEBUG_STATS_RL:          Salt (THERMODYNAMICS) mean=  3.39367601804946E+01
DEBUG_STATS_RL:          Salt (THERMODYNAMICS) S.D.=  1.15334890349729E+00
DEBUG_STATS_RL:         GtNm1 (THERMODYNAMICS)  min=  0.00000000000000E+00
DEBUG_STATS_RL:         GtNm1 (THERMODYNAMICS)  max=  0.00000000000000E+00
DEBUG_STATS_RL:         GtNm1 (THERMODYNAMICS) mean=  0.00000000000000E+00
DEBUG_STATS_RL:         GtNm1 (THERMODYNAMICS) S.D.=  0.00000000000000E+00
DEBUG_STATS_RL:         GsNm1 (THERMODYNAMICS)  min=  0.00000000000000E+00
DEBUG_STATS_RL:         GsNm1 (THERMODYNAMICS)  max=  0.00000000000000E+00
DEBUG_STATS_RL:         GsNm1 (THERMODYNAMICS) mean=  0.00000000000000E+00
DEBUG_STATS_RL:         GsNm1 (THERMODYNAMICS) S.D.=  0.00000000000000E+00
(PID.TID 0000.0001)  MDS_WRITE_FIELD: it,rec,kS,kL,kH=       1     4   1   1   1 file=m_sst_step.0000000001
(PID.TID 0000.0001)  MDS_READ_FIELD: opening global file: xx_atemp.effective.0000000001.data
(PID.TID 0000.0001) EXF_SET_FLD: processing field "climsss",  file: SSS_monthly.labsea1979
(PID.TID 0000.0001) EXF_SET_FLD:   myIter, count0, count1:         8      1      2
(PID.TID 0000.0001) EXF_SET_FLD:   first, changed, fac:   F   F    0.48907103825136611
(PID.TID 0000.0001) EXF_SET_FLD: processing field "uwind",  file: u10m.labsea1979
(PID.TID 0000.0001) EXF_SET_FLD:   myIter, count0, count1:         8      1      2
(PID.TID 0000.0001) EXF_SET_FLD:   first, changed, fac:   F   F    0.48907103825136611
(PID.TID 0000.0001) EXF_SET_FLD: processing field "vwind",  file: v10m.labsea1979
(PID.TID 0000.0001) EXF_SET_FLD:   myIter, count0, count1:         8      1      2
(PID.TID 0000.0001) EXF_SET_FLD:   first, changed, fac:   F   F    0.48907103825136611
(PID.TID 0000.0001) EXF_SET_FLD: processing field "atemp",  file: tair.labsea1979
(PID.TID 0000.0001) EXF_SET_FLD:   myIter, count0, count1:         8      1      2
(PID.TID 0000.0001) EXF_SET_FLD:   first, changed, fac:   F   F    0.48907103825136611
(PID.TID 0000.0001) EXF_SET_FLD: processing field "aqh",  file: qa.labsea1979
(PID.TID 0000.0001) EXF_SET_FLD:   myIter, count0, count1:         8      1      2
(PID.TID 0000.0001) EXF_SET_FLD:   first, changed, fac:   F   F    0.48907103825136611
(PID.TID 0000.0001) EXF_SET_FLD: processing field "precip",  file: prate.labsea1979
(PID.TID 0000.0001) EXF_SET_FLD:   myIter, count0, count1:         8      1      2
(PID.TID 0000.0001) EXF_SET_FLD:   first, changed, fac:   F   F    0.48907103825136611
(PID.TID 0000.0001) EXF_SET_FLD: processing field "swdown",  file: fsh.labsea1979
(PID.TID 0000.0001) EXF_SET_FLD:   myIter, count0, count1:         8      1      2
(PID.TID 0000.0001) EXF_SET_FLD:   first, changed, fac:   F   F    0.48907103825136611
(PID.TID 0000.0001) EXF_SET_FLD: processing field "lwdown",  file: flo.labsea1979
(PID.TID 0000.0001) EXF_SET_FLD:   myIter, count0, count1:         8      1      2
(PID.TID 0000.0001) EXF_SET_FLD:   first, changed, fac:   F   F    0.48907103825136611
DEBUG_STATS_RL: Uice pre  iter (SEAICE_LSR  1)  min= -1.95687208100102E-02
DEBUG_STATS_RL: Uice pre  iter (SEAICE_LSR  1)  max=  2.56695252608154E-01
DEBUG_STATS_RL: Uice pre  iter (SEAICE_LSR  1) mean=  6.10102626008752E-02
DEBUG_STATS_RL: Uice pre  iter (SEAICE_LSR  1) S.D.=  7.26515133443026E-02
DEBUG_STATS_RL: Vice pre  iter (SEAICE_LSR  1)  min= -1.74351841639993E-01
DEBUG_STATS_RL: Vice pre  iter (SEAICE_LSR  1)  max=  6.17815719868620E-02
DEBUG_STATS_RL: Vice pre  iter (SEAICE_LSR  1) mean= -5.34332922103127E-02
DEBUG_STATS_RL: Vice pre  iter (SEAICE_LSR  1) S.D.=  5.91879685811095E-02
DEBUG_STATS_RL: Uice pre  iter (SEAICE_LSR  2)  min= -2.10631196463131E-02
DEBUG_STATS_RL: Uice pre  iter (SEAICE_LSR  2)  max=  2.47741110498678E-01
DEBUG_STATS_RL: Uice pre  iter (SEAICE_LSR  2) mean=  5.58563099525574E-02
DEBUG_STATS_RL: Uice pre  iter (SEAICE_LSR  2) S.D.=  6.83562873807025E-02
DEBUG_STATS_RL: Vice pre  iter (SEAICE_LSR  2)  min= -1.71270231909308E-01
DEBUG_STATS_RL: Vice pre  iter (SEAICE_LSR  2)  max=  5.00408736690829E-02
DEBUG_STATS_RL: Vice pre  iter (SEAICE_LSR  2) mean= -5.35471708937630E-02
DEBUG_STATS_RL: Vice pre  iter (SEAICE_LSR  2) S.D.=  5.75117440524867E-02
DEBUG_STATS_RL:                EtaN (DYNAMICS)  min= -1.16069768363258E-01
DEBUG_STATS_RL:                EtaN (DYNAMICS)  max=  3.26639972250553E-01
DEBUG_STATS_RL:                EtaN (DYNAMICS) mean= -4.23481440025525E-03
DEBUG_STATS_RL:                EtaN (DYNAMICS) S.D.=  6.63305979494085E-02
DEBUG_STATS_RL:                Uvel (DYNAMICS)  min= -4.34802359621465E-02
DEBUG_STATS_RL:                Uvel (DYNAMICS)  max=  9.99752242998808E-02
DEBUG_STATS_RL:                Uvel (DYNAMICS) mean=  3.48264152589957E-03
DEBUG_STATS_RL:                Uvel (DYNAMICS) S.D.=  1.35343125506116E-02
DEBUG_STATS_RL:                Vvel (DYNAMICS)  min= -1.33439207289254E-01
DEBUG_STATS_RL:                Vvel (DYNAMICS)  max=  5.60260700766945E-02
DEBUG_STATS_RL:                Vvel (DYNAMICS) mean= -4.02696574872961E-03
DEBUG_STATS_RL:                Vvel (DYNAMICS) S.D.=  1.80273334212797E-02
DEBUG_STATS_RL:                Wvel (DYNAMICS)  min= -2.73348162229354E-04
DEBUG_STATS_RL:                Wvel (DYNAMICS)  max=  3.13596923283671E-04
DEBUG_STATS_RL:                Wvel (DYNAMICS) mean=  4.73709411313520E-08
DEBUG_STATS_RL:                Wvel (DYNAMICS) S.D.=  2.82661454219204E-05
DEBUG_STATS_RL:               Theta (DYNAMICS)  min= -1.95943609422387E+00
DEBUG_STATS_RL:               Theta (DYNAMICS)  max=  1.32225113409295E+01
DEBUG_STATS_RL:               Theta (DYNAMICS) mean=  2.41480286619418E+00
DEBUG_STATS_RL:               Theta (DYNAMICS) S.D.=  2.57398860030337E+00
DEBUG_STATS_RL:                Salt (DYNAMICS)  min=  2.76387468555707E+01
DEBUG_STATS_RL:                Salt (DYNAMICS)  max=  3.54510358217953E+01
DEBUG_STATS_RL:                Salt (DYNAMICS) mean=  3.39367601804946E+01
DEBUG_STATS_RL:                Salt (DYNAMICS) S.D.=  1.15334890349729E+00
DEBUG_STATS_RL:                  Gu (DYNAMICS)  min= -5.98368153074020E-02
DEBUG_STATS_RL:                  Gu (DYNAMICS)  max=  9.68873121299251E-02
DEBUG_STATS_RL:                  Gu (DYNAMICS) mean=  1.30194972947503E-03
DEBUG_STATS_RL:                  Gu (DYNAMICS) S.D.=  1.61566615235326E-02
DEBUG_STATS_RL:                  Gv (DYNAMICS)  min= -1.36271217267994E-01
DEBUG_STATS_RL:                  Gv (DYNAMICS)  max=  3.83573237348583E-02
DEBUG_STATS_RL:                  Gv (DYNAMICS) mean= -7.71950831958569E-03
DEBUG_STATS_RL:                  Gv (DYNAMICS) S.D.=  1.77533563667874E-02
DEBUG_STATS_RL:               GuNm1 (DYNAMICS)  min= -3.40955168137046E-07
DEBUG_STATS_RL:               GuNm1 (DYNAMICS)  max=  1.82641400821284E-07
DEBUG_STATS_RL:               GuNm1 (DYNAMICS) mean= -2.79196714442664E-09
DEBUG_STATS_RL:               GuNm1 (DYNAMICS) S.D.=  4.07453533304239E-08
DEBUG_STATS_RL:               GvNm1 (DYNAMICS)  min= -2.14559263714299E-07
DEBUG_STATS_RL:               GvNm1 (DYNAMICS)  max=  1.94148824775153E-07
DEBUG_STATS_RL:               GvNm1 (DYNAMICS) mean= -4.04169206802268E-10
DEBUG_STATS_RL:               GvNm1 (DYNAMICS) S.D.=  4.19222729579498E-08
DEBUG_STATS_RL:               GtNm1 (DYNAMICS)  min=  0.00000000000000E+00
DEBUG_STATS_RL:               GtNm1 (DYNAMICS)  max=  0.00000000000000E+00
DEBUG_STATS_RL:               GtNm1 (DYNAMICS) mean=  0.00000000000000E+00
DEBUG_STATS_RL:               GtNm1 (DYNAMICS) S.D.=  0.00000000000000E+00
DEBUG_STATS_RL:               GsNm1 (DYNAMICS)  min=  0.00000000000000E+00
DEBUG_STATS_RL:               GsNm1 (DYNAMICS)  max=  0.00000000000000E+00
DEBUG_STATS_RL:               GsNm1 (DYNAMICS) mean=  0.00000000000000E+00
DEBUG_STATS_RL:               GsNm1 (DYNAMICS) S.D.=  0.00000000000000E+00
DEBUG_STATS_RL:    cg2d_b (SOLVE_FOR_PRESSURE)  min= -7.29975929937793E+03
DEBUG_STATS_RL:    cg2d_b (SOLVE_FOR_PRESSURE)  max=  2.19478299507054E+03
DEBUG_STATS_RL:    cg2d_b (SOLVE_FOR_PRESSURE) mean= -3.96767063648440E-13
DEBUG_STATS_RL:    cg2d_b (SOLVE_FOR_PRESSURE) S.D.=  8.94146290227710E+02
 cg2d: Sum(rhs),rhsMax =  -6.92501611609941E-15  1.17489186776824E+00
DEBUG_STATS_RL:    cg2d_x (SOLVE_FOR_PRESSURE)  min= -1.08771127617308E+00
DEBUG_STATS_RL:    cg2d_x (SOLVE_FOR_PRESSURE)  max=  3.12128519797376E+00
DEBUG_STATS_RL:    cg2d_x (SOLVE_FOR_PRESSURE) mean= -4.19588396852395E-02
DEBUG_STATS_RL:    cg2d_x (SOLVE_FOR_PRESSURE) S.D.=  6.20262122262901E-01
DEBUG_STATS_RL:          Uvel (THERMODYNAMICS)  min= -5.12375198242059E-02
DEBUG_STATS_RL:          Uvel (THERMODYNAMICS)  max=  8.84896388076339E-02
DEBUG_STATS_RL:          Uvel (THERMODYNAMICS) mean=  2.55769138538291E-03
DEBUG_STATS_RL:          Uvel (THERMODYNAMICS) S.D.=  1.29064693910456E-02
DEBUG_STATS_RL:          Vvel (THERMODYNAMICS)  min= -1.29344604199479E-01
DEBUG_STATS_RL:          Vvel (THERMODYNAMICS)  max=  4.58633296186249E-02
DEBUG_STATS_RL:          Vvel (THERMODYNAMICS) mean= -4.14107843006319E-03
DEBUG_STATS_RL:          Vvel (THERMODYNAMICS) S.D.=  1.66082836245794E-02
DEBUG_STATS_RL:          Wvel (THERMODYNAMICS)  min= -2.60848991809587E-04
DEBUG_STATS_RL:          Wvel (THERMODYNAMICS)  max=  2.85731299794369E-04
DEBUG_STATS_RL:          Wvel (THERMODYNAMICS) mean=  1.36793666178293E-07
DEBUG_STATS_RL:          Wvel (THERMODYNAMICS) S.D.=  2.70580054557619E-05
DEBUG_STATS_RL:         Theta (THERMODYNAMICS)  min= -1.95932886747261E+00
DEBUG_STATS_RL:         Theta (THERMODYNAMICS)  max=  1.32010303660582E+01
DEBUG_STATS_RL:         Theta (THERMODYNAMICS) mean=  2.41452315045422E+00
DEBUG_STATS_RL:         Theta (THERMODYNAMICS) S.D.=  2.57350774067654E+00
DEBUG_STATS_RL:          Salt (THERMODYNAMICS)  min=  2.76435505129419E+01
DEBUG_STATS_RL:          Salt (THERMODYNAMICS)  max=  3.54508660670958E+01
DEBUG_STATS_RL:          Salt (THERMODYNAMICS) mean=  3.39367749828872E+01
DEBUG_STATS_RL:          Salt (THERMODYNAMICS) S.D.=  1.15309738582237E+00
DEBUG_STATS_RL:         GtNm1 (THERMODYNAMICS)  min=  0.00000000000000E+00
DEBUG_STATS_RL:         GtNm1 (THERMODYNAMICS)  max=  0.00000000000000E+00
DEBUG_STATS_RL:         GtNm1 (THERMODYNAMICS) mean=  0.00000000000000E+00
DEBUG_STATS_RL:         GtNm1 (THERMODYNAMICS) S.D.=  0.00000000000000E+00
DEBUG_STATS_RL:         GsNm1 (THERMODYNAMICS)  min=  0.00000000000000E+00
DEBUG_STATS_RL:         GsNm1 (THERMODYNAMICS)  max=  0.00000000000000E+00
DEBUG_STATS_RL:         GsNm1 (THERMODYNAMICS) mean=  0.00000000000000E+00
DEBUG_STATS_RL:         GsNm1 (THERMODYNAMICS) S.D.=  0.00000000000000E+00
(PID.TID 0000.0001) Did not write pickup because writePickupAtEnd = FALSE
(PID.TID 0000.0001)  MDS_WRITE_FIELD: it,rec,kS,kL,kH=       1     5   1   1   1 file=m_sst_step.0000000001
(PID.TID 0000.0001) gencost # 03
(PID.TID 0000.0001)  MDS_READ_FIELD: opening global file: sigma_sst.bin
(PID.TID 0000.0001)  MDS_READ_FIELD: opening global file: m_sst_step.0000000001.data
(PID.TID 0000.0001)  MDS_READ_FIELD: opening global file: labsea_SST_fields_t5
(PID.TID 0000.0001)  MDS_WRITE_FIELD: it,rec,kS,kL,kH=       1     1   1   1   1 file=misfit_sst
(PID.TID 0000.0001)  MDS_READ_FIELD: opening global file: sigma_sst.bin
(PID.TID 0000.0001)  MDS_READ_FIELD: opening global file: m_sst_step.0000000001.data
(PID.TID 0000.0001)  MDS_READ_FIELD: opening global file: labsea_SST_fields_t5
(PID.TID 0000.0001)  MDS_WRITE_FIELD: it,rec,kS,kL,kH=       1     2   1   1   1 file=misfit_sst
(PID.TID 0000.0001)  MDS_READ_FIELD: opening global file: sigma_sst.bin
(PID.TID 0000.0001)  MDS_READ_FIELD: opening global file: m_sst_step.0000000001.data
(PID.TID 0000.0001)  MDS_READ_FIELD: opening global file: labsea_SST_fields_t5
(PID.TID 0000.0001)  MDS_WRITE_FIELD: it,rec,kS,kL,kH=       1     3   1   1   1 file=misfit_sst
(PID.TID 0000.0001)  MDS_READ_FIELD: opening global file: sigma_sst.bin
(PID.TID 0000.0001)  MDS_READ_FIELD: opening global file: m_sst_step.0000000001.data
(PID.TID 0000.0001)  MDS_READ_FIELD: opening global file: labsea_SST_fields_t5
(PID.TID 0000.0001)  MDS_WRITE_FIELD: it,rec,kS,kL,kH=       1     4   1   1   1 file=misfit_sst
(PID.TID 0000.0001)  MDS_READ_FIELD: opening global file: sigma_sst.bin
(PID.TID 0000.0001)  MDS_READ_FIELD: opening global file: m_sst_step.0000000001.data
(PID.TID 0000.0001)  MDS_READ_FIELD: opening global file: labsea_SST_fields_t5
(PID.TID 0000.0001)  MDS_WRITE_FIELD: it,rec,kS,kL,kH=       1     5   1   1   1 file=misfit_sst
(PID.TID 0000.0001)  MDS_READ_FIELD: opening global file: xx_atemp.0000000001.data
(PID.TID 0000.0001)  MDS_READ_FIELD: opening global file: xx_atemp.0000000001.data
(PID.TID 0000.0001)  MDS_READ_FIELD: opening global file: xx_atemp.0000000001.data
(PID.TID 0000.0001)  MDS_READ_FIELD: opening global file: xx_atemp.0000000001.data
(PID.TID 0000.0001)  MDS_READ_FIELD: opening global file: xx_atemp.0000000001.data
(PID.TID 0000.0001)  MDS_READ_FIELD: opening global file: xx_atemp.0000000001.data
(PID.TID 0000.0001)  MDS_READ_FIELD: opening global file: xx_atemp.0000000001.data
(PID.TID 0000.0001)  MDS_READ_FIELD: opening global file: xx_atemp.0000000001.data
(PID.TID 0000.0001)  MDS_READ_FIELD: opening global file: xx_atemp.0000000001.data
(PID.TID 0000.0001)  MDS_READ_FIELD: opening global file: xx_atemp.0000000001.data
(PID.TID 0000.0001)  MDS_READ_FIELD: opening global file: xx_atemp.0000000001.data
 --> f_ice     = 0.000000000000000D+00
 --> f_smrarea = 0.000000000000000D+00
 --> f_smrarea = 0.000000000000000D+00
 --> f_smrarea = 0.000000000000000D+00
(PID.TID 0000.0001)  --> f_gencost = 0.527453128215446D+04 3
(PID.TID 0000.0001)  --> f_gentim2d = 0.243374980010000D+03 1
(PID.TID 0000.0001)  --> fc               = 0.527453128215446D+04
(PID.TID 0000.0001)  cost_Final: final cost function =  0.527453128215446D+04
(PID.TID 0000.0001) 
(PID.TID 0000.0001)              cost function evaluation finished.
(PID.TID 0000.0001) 
(PID.TID 0000.0001)   early fc =  0.000000000000000D+00
(PID.TID 0000.0001)   local fc =  0.527453128215446D+04
(PID.TID 0000.0001)  global fc =  0.527453128215446D+04
(PID.TID 0000.0001) grdchk perturb(-)fc: fcpertminus =  5.27453128215446E+03
(PID.TID 0000.0001)  MDS_READ_FIELD: opening global file: xx_atemp.0000000001.data
(PID.TID 0000.0001)  MDS_WRITE_FIELD: it,rec,kS,kL,kH=       1     1   1   1   1 file=xx_atemp.0000000001
grad-res -------------------------------
 grad-res     0    3    8    8    1    1    1    1   5.27453128215E+03  5.27453128215E+03  5.27453128215E+03
 grad-res     0    3    3   77    0    1    1    1   0.00000000000E+00  0.00000000000E+00  0.00000000000E+00
(PID.TID 0000.0001)  ADM  ref_cost_function      =  5.27453128215446E+03
(PID.TID 0000.0001)  ADM  adjoint_gradient       =  0.00000000000000E+00
(PID.TID 0000.0001)  ADM  finite-diff_grad       =  0.00000000000000E+00
(PID.TID 0000.0001) ====== End of gradient-check number   3 (ierr=  0) =======
(PID.TID 0000.0001) ====== Starts gradient-check number   4 (=ichknum) =======
 ph-test icomp, ncvarcomp, ichknum           78        1650           4
 ph-grd _loc: bi, bj, icomptest, ichknum            1           1          77           4
 ph-grd -->hit<--            9           8           1           1
(PID.TID 0000.0001) grdchk pos: i,j,k=    9    8    1 ; bi,bj=   1   1 ; iobc=  1 ; rec=   1
(PID.TID 0000.0001)  MDS_READ_FIELD: opening global file: adxx_atemp.0000000001.data
(PID.TID 0000.0001)  MDS_READ_FIELD: opening global file: xx_atemp.0000000001.data
(PID.TID 0000.0001)  MDS_WRITE_FIELD: it,rec,kS,kL,kH=       1     1   1   1   1 file=xx_atemp.0000000001
(PID.TID 0000.0001)  MDS_READ_META: opening file: pickup.0000000005.meta
(PID.TID 0000.0001)  nRecords = 141 ; filePrec =  64 ; fileIter =         5
(PID.TID 0000.0001)     nDims =   2 , dims:
(PID.TID 0000.0001)    1:  20   1  20
(PID.TID 0000.0001)    2:  16   1  16
(PID.TID 0000.0001)     nFlds =   9 , nFl3D =   6 , fields:
(PID.TID 0000.0001)  >Uvel    < >Vvel    < >Theta   < >Salt    < >GuNm1   < >GvNm1   < >EtaN    < >dEtaHdt < >EtaH    <
(PID.TID 0000.0001) missingVal=  1.00000000000000E+00 ; nTimRec =   1 , timeList:
(PID.TID 0000.0001)   1.800000000000E+04
(PID.TID 0000.0001) READ_MFLDS_3D_RL: read field: "Uvel    ", #   1 in fldList, rec=   1
(PID.TID 0000.0001)  MDS_READ_FIELD: opening global file: pickup.0000000005.data
(PID.TID 0000.0001) READ_MFLDS_3D_RL: read field: "Vvel    ", #   2 in fldList, rec=   2
(PID.TID 0000.0001)  MDS_READ_FIELD: opening global file: pickup.0000000005.data
(PID.TID 0000.0001) READ_MFLDS_3D_RL: read field: "Theta   ", #   3 in fldList, rec=   3
(PID.TID 0000.0001)  MDS_READ_FIELD: opening global file: pickup.0000000005.data
(PID.TID 0000.0001) READ_MFLDS_3D_RL: read field: "Salt    ", #   4 in fldList, rec=   4
(PID.TID 0000.0001)  MDS_READ_FIELD: opening global file: pickup.0000000005.data
(PID.TID 0000.0001) READ_MFLDS_3D_RL: read field: "GuNm1   ", #   5 in fldList, rec=   5
(PID.TID 0000.0001)  MDS_READ_FIELD: opening global file: pickup.0000000005.data
(PID.TID 0000.0001) READ_MFLDS_3D_RL: read field: "GvNm1   ", #   6 in fldList, rec=   6
(PID.TID 0000.0001)  MDS_READ_FIELD: opening global file: pickup.0000000005.data
(PID.TID 0000.0001) READ_MFLDS_3D_RL: read field: "EtaN    ", #   7 in fldList, rec= 139
(PID.TID 0000.0001)  MDS_READ_FIELD: opening global file: pickup.0000000005.data
(PID.TID 0000.0001) READ_MFLDS_CHECK: - normal end ; reset MFLDS file-name: pickup.0000000005
(PID.TID 0000.0001)  MDS_READ_FIELD: opening global file: pickup_cd.0000000005.data
(PID.TID 0000.0001)  MDS_READ_FIELD: opening global file: pickup_cd.0000000005.data
(PID.TID 0000.0001)  MDS_READ_FIELD: opening global file: pickup_cd.0000000005.data
(PID.TID 0000.0001)  MDS_READ_FIELD: opening global file: pickup_cd.0000000005.data
(PID.TID 0000.0001)  MDS_READ_FIELD: opening global file: pickup_cd.0000000005.data
(PID.TID 0000.0001)  MDS_READ_META: opening file: pickup_seaice.0000000005.meta
(PID.TID 0000.0001)  nRecords =  13 ; filePrec =  64 ; fileIter =         5
(PID.TID 0000.0001)     nDims =   2 , dims:
(PID.TID 0000.0001)    1:  20   1  20
(PID.TID 0000.0001)    2:  16   1  16
(PID.TID 0000.0001)     nFlds =   7 , nFl3D =   1 , fields:
(PID.TID 0000.0001)  >siTICES < >siAREA  < >siHEFF  < >siHSNOW < >siHSALT < >siUICE  < >siVICE  <
(PID.TID 0000.0001) missingVal=  1.00000000000000E+00 ; nTimRec =   1 , timeList:
(PID.TID 0000.0001)   1.800000000000E+04
(PID.TID 0000.0001) READ_MFLDS_3D_RL: read field: "siTICES ", #   1 in fldList, rec=   1
(PID.TID 0000.0001)  MDS_READ_FIELD: opening global file: pickup_seaice.0000000005.data
(PID.TID 0000.0001) READ_MFLDS_3D_RL: read field: "siAREA  ", #   2 in fldList, rec=   8
(PID.TID 0000.0001)  MDS_READ_FIELD: opening global file: pickup_seaice.0000000005.data
(PID.TID 0000.0001) READ_MFLDS_3D_RL: read field: "siHEFF  ", #   3 in fldList, rec=   9
(PID.TID 0000.0001)  MDS_READ_FIELD: opening global file: pickup_seaice.0000000005.data
(PID.TID 0000.0001) READ_MFLDS_3D_RL: read field: "siHSNOW ", #   4 in fldList, rec=  10
(PID.TID 0000.0001)  MDS_READ_FIELD: opening global file: pickup_seaice.0000000005.data
(PID.TID 0000.0001) READ_MFLDS_3D_RL: read field: "siHSALT ", #   5 in fldList, rec=  11
(PID.TID 0000.0001)  MDS_READ_FIELD: opening global file: pickup_seaice.0000000005.data
(PID.TID 0000.0001) READ_MFLDS_3D_RL: read field: "siUICE  ", #   6 in fldList, rec=  12
(PID.TID 0000.0001)  MDS_READ_FIELD: opening global file: pickup_seaice.0000000005.data
(PID.TID 0000.0001) READ_MFLDS_3D_RL: read field: "siVICE  ", #   7 in fldList, rec=  13
(PID.TID 0000.0001)  MDS_READ_FIELD: opening global file: pickup_seaice.0000000005.data
(PID.TID 0000.0001) READ_MFLDS_CHECK: - normal end ; reset MFLDS file-name: pickup_seaice.0000000005
(PID.TID 0000.0001) CTRL_INIT_REC: Getting record indices for xx_atemp
(PID.TID 0000.0001) CTRL_INIT_REC: Record indices for xx_atemp:
(PID.TID 0000.0001) CTRL_INIT_REC: startrec =          6, endrec =         11
(PID.TID 0000.0001)  MDS_READ_FIELD: opening global file: xx_atemp.0000000001.data
(PID.TID 0000.0001)  MDS_WRITE_FIELD: it,rec,kS,kL,kH=       1     1   1   1   1 file=xx_atemp.effective.0000000001
(PID.TID 0000.0001)  MDS_READ_FIELD: opening global file: xx_atemp.0000000001.data
(PID.TID 0000.0001)  MDS_WRITE_FIELD: it,rec,kS,kL,kH=       1     2   1   1   1 file=xx_atemp.effective.0000000001
(PID.TID 0000.0001)  MDS_READ_FIELD: opening global file: xx_atemp.0000000001.data
(PID.TID 0000.0001)  MDS_WRITE_FIELD: it,rec,kS,kL,kH=       1     3   1   1   1 file=xx_atemp.effective.0000000001
(PID.TID 0000.0001)  MDS_READ_FIELD: opening global file: xx_atemp.0000000001.data
(PID.TID 0000.0001)  MDS_WRITE_FIELD: it,rec,kS,kL,kH=       1     4   1   1   1 file=xx_atemp.effective.0000000001
(PID.TID 0000.0001)  MDS_READ_FIELD: opening global file: xx_atemp.0000000001.data
(PID.TID 0000.0001)  MDS_WRITE_FIELD: it,rec,kS,kL,kH=       1     5   1   1   1 file=xx_atemp.effective.0000000001
(PID.TID 0000.0001)  MDS_READ_FIELD: opening global file: xx_atemp.0000000001.data
(PID.TID 0000.0001)  MDS_WRITE_FIELD: it,rec,kS,kL,kH=       1     6   1   1   1 file=xx_atemp.effective.0000000001
(PID.TID 0000.0001)  MDS_READ_FIELD: opening global file: xx_atemp.effective.0000000001.data
(PID.TID 0000.0001)  MDS_READ_FIELD: opening global file: ones_64b.bin
(PID.TID 0000.0001)  MDS_WRITE_FIELD: it,rec,kS,kL,kH=       1     1   1   1   1 file=xx_atemp.effective.0000000001
(PID.TID 0000.0001)  MDS_READ_FIELD: opening global file: xx_atemp.effective.0000000001.data
(PID.TID 0000.0001)  MDS_READ_FIELD: opening global file: ones_64b.bin
(PID.TID 0000.0001)  MDS_WRITE_FIELD: it,rec,kS,kL,kH=       1     2   1   1   1 file=xx_atemp.effective.0000000001
(PID.TID 0000.0001)  MDS_READ_FIELD: opening global file: xx_atemp.effective.0000000001.data
(PID.TID 0000.0001)  MDS_READ_FIELD: opening global file: ones_64b.bin
(PID.TID 0000.0001)  MDS_WRITE_FIELD: it,rec,kS,kL,kH=       1     3   1   1   1 file=xx_atemp.effective.0000000001
(PID.TID 0000.0001)  MDS_READ_FIELD: opening global file: xx_atemp.effective.0000000001.data
(PID.TID 0000.0001)  MDS_READ_FIELD: opening global file: ones_64b.bin
(PID.TID 0000.0001)  MDS_WRITE_FIELD: it,rec,kS,kL,kH=       1     4   1   1   1 file=xx_atemp.effective.0000000001
(PID.TID 0000.0001)  MDS_READ_FIELD: opening global file: xx_atemp.effective.0000000001.data
(PID.TID 0000.0001)  MDS_READ_FIELD: opening global file: ones_64b.bin
(PID.TID 0000.0001)  MDS_WRITE_FIELD: it,rec,kS,kL,kH=       1     5   1   1   1 file=xx_atemp.effective.0000000001
(PID.TID 0000.0001)  MDS_READ_FIELD: opening global file: xx_atemp.effective.0000000001.data
(PID.TID 0000.0001)  MDS_READ_FIELD: opening global file: ones_64b.bin
(PID.TID 0000.0001)  MDS_WRITE_FIELD: it,rec,kS,kL,kH=       1     6   1   1   1 file=xx_atemp.effective.0000000001
(PID.TID 0000.0001) // =======================================================
(PID.TID 0000.0001) // Model current state
(PID.TID 0000.0001) // =======================================================
(PID.TID 0000.0001) 
(PID.TID 0000.0001)  MDS_WRITE_FIELD: it,rec,kS,kL,kH=       1     1   1   1   1 file=m_sst_step.0000000001
(PID.TID 0000.0001)  MDS_READ_FIELD: opening global file: xx_atemp.effective.0000000001.data
(PID.TID 0000.0001)  MDS_READ_FIELD: opening global file: xx_atemp.effective.0000000001.data
(PID.TID 0000.0001) EXF_SET_FLD: processing field "climsss",  file: SSS_monthly.labsea1979
(PID.TID 0000.0001) EXF_SET_FLD:   myIter, count0, count1:         5      1      2
(PID.TID 0000.0001) EXF_SET_FLD:   first, changed, fac:   T   F    0.49316939890710387
(PID.TID 0000.0001) EXF_SET_FLD: field "climsss", it=         5, loading rec=     1
(PID.TID 0000.0001) EXF_SET_FLD:   from file: "SSS_monthly.labsea1979"
(PID.TID 0000.0001)  MDS_READ_FIELD: opening global file: SSS_monthly.labsea1979
(PID.TID 0000.0001) EXF_SET_FLD: field "climsss", it=         5, loading rec=     2
(PID.TID 0000.0001) EXF_SET_FLD:   from file: "SSS_monthly.labsea1979"
(PID.TID 0000.0001)  MDS_READ_FIELD: opening global file: SSS_monthly.labsea1979
(PID.TID 0000.0001) EXF_SET_FLD: processing field "uwind",  file: u10m.labsea1979
(PID.TID 0000.0001) EXF_SET_FLD:   myIter, count0, count1:         5      1      2
(PID.TID 0000.0001) EXF_SET_FLD:   first, changed, fac:   T   F    0.49316939890710387
(PID.TID 0000.0001) EXF_SET_FLD: field "uwind", it=         5, loading rec=     1
(PID.TID 0000.0001) EXF_SET_FLD:   from file: "u10m.labsea1979"
(PID.TID 0000.0001)  MDS_READ_FIELD: opening global file: u10m.labsea1979
(PID.TID 0000.0001) EXF_SET_FLD: field "uwind", it=         5, loading rec=     2
(PID.TID 0000.0001) EXF_SET_FLD:   from file: "u10m.labsea1979"
(PID.TID 0000.0001)  MDS_READ_FIELD: opening global file: u10m.labsea1979
(PID.TID 0000.0001) EXF_SET_FLD: processing field "vwind",  file: v10m.labsea1979
(PID.TID 0000.0001) EXF_SET_FLD:   myIter, count0, count1:         5      1      2
(PID.TID 0000.0001) EXF_SET_FLD:   first, changed, fac:   T   F    0.49316939890710387
(PID.TID 0000.0001) EXF_SET_FLD: field "vwind", it=         5, loading rec=     1
(PID.TID 0000.0001) EXF_SET_FLD:   from file: "v10m.labsea1979"
(PID.TID 0000.0001)  MDS_READ_FIELD: opening global file: v10m.labsea1979
(PID.TID 0000.0001) EXF_SET_FLD: field "vwind", it=         5, loading rec=     2
(PID.TID 0000.0001) EXF_SET_FLD:   from file: "v10m.labsea1979"
(PID.TID 0000.0001)  MDS_READ_FIELD: opening global file: v10m.labsea1979
(PID.TID 0000.0001) EXF_SET_FLD: processing field "atemp",  file: tair.labsea1979
(PID.TID 0000.0001) EXF_SET_FLD:   myIter, count0, count1:         5      1      2
(PID.TID 0000.0001) EXF_SET_FLD:   first, changed, fac:   T   F    0.49316939890710387
(PID.TID 0000.0001) EXF_SET_FLD: field "atemp", it=         5, loading rec=     1
(PID.TID 0000.0001) EXF_SET_FLD:   from file: "tair.labsea1979"
(PID.TID 0000.0001)  MDS_READ_FIELD: opening global file: tair.labsea1979
(PID.TID 0000.0001) EXF_SET_FLD: field "atemp", it=         5, loading rec=     2
(PID.TID 0000.0001) EXF_SET_FLD:   from file: "tair.labsea1979"
(PID.TID 0000.0001)  MDS_READ_FIELD: opening global file: tair.labsea1979
(PID.TID 0000.0001) EXF_SET_FLD: processing field "aqh",  file: qa.labsea1979
(PID.TID 0000.0001) EXF_SET_FLD:   myIter, count0, count1:         5      1      2
(PID.TID 0000.0001) EXF_SET_FLD:   first, changed, fac:   T   F    0.49316939890710387
(PID.TID 0000.0001) EXF_SET_FLD: field "aqh", it=         5, loading rec=     1
(PID.TID 0000.0001) EXF_SET_FLD:   from file: "qa.labsea1979"
(PID.TID 0000.0001)  MDS_READ_FIELD: opening global file: qa.labsea1979
(PID.TID 0000.0001) EXF_SET_FLD: field "aqh", it=         5, loading rec=     2
(PID.TID 0000.0001) EXF_SET_FLD:   from file: "qa.labsea1979"
(PID.TID 0000.0001)  MDS_READ_FIELD: opening global file: qa.labsea1979
(PID.TID 0000.0001) EXF_SET_FLD: processing field "precip",  file: prate.labsea1979
(PID.TID 0000.0001) EXF_SET_FLD:   myIter, count0, count1:         5      1      2
(PID.TID 0000.0001) EXF_SET_FLD:   first, changed, fac:   T   F    0.49316939890710387
(PID.TID 0000.0001) EXF_SET_FLD: field "precip", it=         5, loading rec=     1
(PID.TID 0000.0001) EXF_SET_FLD:   from file: "prate.labsea1979"
(PID.TID 0000.0001)  MDS_READ_FIELD: opening global file: prate.labsea1979
(PID.TID 0000.0001) EXF_SET_FLD: field "precip", it=         5, loading rec=     2
(PID.TID 0000.0001) EXF_SET_FLD:   from file: "prate.labsea1979"
(PID.TID 0000.0001)  MDS_READ_FIELD: opening global file: prate.labsea1979
(PID.TID 0000.0001) EXF_SET_FLD: processing field "swdown",  file: fsh.labsea1979
(PID.TID 0000.0001) EXF_SET_FLD:   myIter, count0, count1:         5      1      2
(PID.TID 0000.0001) EXF_SET_FLD:   first, changed, fac:   T   F    0.49316939890710387
(PID.TID 0000.0001) EXF_SET_FLD: field "swdown", it=         5, loading rec=     1
(PID.TID 0000.0001) EXF_SET_FLD:   from file: "fsh.labsea1979"
(PID.TID 0000.0001)  MDS_READ_FIELD: opening global file: fsh.labsea1979
(PID.TID 0000.0001) EXF_SET_FLD: field "swdown", it=         5, loading rec=     2
(PID.TID 0000.0001) EXF_SET_FLD:   from file: "fsh.labsea1979"
(PID.TID 0000.0001)  MDS_READ_FIELD: opening global file: fsh.labsea1979
(PID.TID 0000.0001) EXF_SET_FLD: processing field "lwdown",  file: flo.labsea1979
(PID.TID 0000.0001) EXF_SET_FLD:   myIter, count0, count1:         5      1      2
(PID.TID 0000.0001) EXF_SET_FLD:   first, changed, fac:   T   F    0.49316939890710387
(PID.TID 0000.0001) EXF_SET_FLD: field "lwdown", it=         5, loading rec=     1
(PID.TID 0000.0001) EXF_SET_FLD:   from file: "flo.labsea1979"
(PID.TID 0000.0001)  MDS_READ_FIELD: opening global file: flo.labsea1979
(PID.TID 0000.0001) EXF_SET_FLD: field "lwdown", it=         5, loading rec=     2
(PID.TID 0000.0001) EXF_SET_FLD:   from file: "flo.labsea1979"
(PID.TID 0000.0001)  MDS_READ_FIELD: opening global file: flo.labsea1979
DEBUG_STATS_RL: Uice pre  iter (SEAICE_LSR  1)  min= -9.02121933428159E-03
DEBUG_STATS_RL: Uice pre  iter (SEAICE_LSR  1)  max=  2.19445684647109E-01
DEBUG_STATS_RL: Uice pre  iter (SEAICE_LSR  1) mean=  6.96639305502532E-02
DEBUG_STATS_RL: Uice pre  iter (SEAICE_LSR  1) S.D.=  7.25590715280224E-02
DEBUG_STATS_RL: Vice pre  iter (SEAICE_LSR  1)  min= -1.73112057819563E-01
DEBUG_STATS_RL: Vice pre  iter (SEAICE_LSR  1)  max=  1.05174802576008E-01
DEBUG_STATS_RL: Vice pre  iter (SEAICE_LSR  1) mean= -3.44957645455127E-02
DEBUG_STATS_RL: Vice pre  iter (SEAICE_LSR  1) S.D.=  5.17027322842165E-02
DEBUG_STATS_RL: Uice pre  iter (SEAICE_LSR  2)  min= -9.93295031152210E-03
DEBUG_STATS_RL: Uice pre  iter (SEAICE_LSR  2)  max=  2.37649472779152E-01
DEBUG_STATS_RL: Uice pre  iter (SEAICE_LSR  2) mean=  7.08960993522900E-02
DEBUG_STATS_RL: Uice pre  iter (SEAICE_LSR  2) S.D.=  7.51814019583860E-02
DEBUG_STATS_RL: Vice pre  iter (SEAICE_LSR  2)  min= -1.73458139241626E-01
DEBUG_STATS_RL: Vice pre  iter (SEAICE_LSR  2)  max=  1.02503634704982E-01
DEBUG_STATS_RL: Vice pre  iter (SEAICE_LSR  2) mean= -3.89801386768760E-02
DEBUG_STATS_RL: Vice pre  iter (SEAICE_LSR  2) S.D.=  5.44920749395038E-02
DEBUG_STATS_RL:                EtaN (DYNAMICS)  min= -1.29709672821213E-01
DEBUG_STATS_RL:                EtaN (DYNAMICS)  max=  3.25626876398477E-01
DEBUG_STATS_RL:                EtaN (DYNAMICS) mean= -3.00841690122536E-03
DEBUG_STATS_RL:                EtaN (DYNAMICS) S.D.=  7.54180814594036E-02
DEBUG_STATS_RL:                Uvel (DYNAMICS)  min= -3.64296443204224E-02
DEBUG_STATS_RL:                Uvel (DYNAMICS)  max=  8.91662112566489E-02
DEBUG_STATS_RL:                Uvel (DYNAMICS) mean=  5.18186102505262E-03
DEBUG_STATS_RL:                Uvel (DYNAMICS) S.D.=  1.36791834404111E-02
DEBUG_STATS_RL:                Vvel (DYNAMICS)  min= -8.48427067731397E-02
DEBUG_STATS_RL:                Vvel (DYNAMICS)  max=  7.15709637633448E-02
DEBUG_STATS_RL:                Vvel (DYNAMICS) mean= -6.25663991250223E-04
DEBUG_STATS_RL:                Vvel (DYNAMICS) S.D.=  1.65568599029307E-02
DEBUG_STATS_RL:                Wvel (DYNAMICS)  min= -2.02998023749463E-04
DEBUG_STATS_RL:                Wvel (DYNAMICS)  max=  3.07634744219620E-04
DEBUG_STATS_RL:                Wvel (DYNAMICS) mean= -2.14485636605179E-07
DEBUG_STATS_RL:                Wvel (DYNAMICS) S.D.=  2.56514188295233E-05
DEBUG_STATS_RL:               Theta (DYNAMICS)  min= -1.95891909892377E+00
DEBUG_STATS_RL:               Theta (DYNAMICS)  max=  1.32575107273067E+01
DEBUG_STATS_RL:               Theta (DYNAMICS) mean=  2.41560973729717E+00
DEBUG_STATS_RL:               Theta (DYNAMICS) S.D.=  2.57506629522921E+00
DEBUG_STATS_RL:                Salt (DYNAMICS)  min=  2.76241835718781E+01
DEBUG_STATS_RL:                Salt (DYNAMICS)  max=  3.54512322319690E+01
DEBUG_STATS_RL:                Salt (DYNAMICS) mean=  3.39367610972827E+01
DEBUG_STATS_RL:                Salt (DYNAMICS) S.D.=  1.15400523729775E+00
DEBUG_STATS_RL:                  Gu (DYNAMICS)  min= -3.40661284878781E-02
DEBUG_STATS_RL:                  Gu (DYNAMICS)  max=  1.09592409505601E-01
DEBUG_STATS_RL:                  Gu (DYNAMICS) mean=  3.43340148231612E-03
DEBUG_STATS_RL:                  Gu (DYNAMICS) S.D.=  1.52106643070904E-02
DEBUG_STATS_RL:                  Gv (DYNAMICS)  min= -1.19743996000496E-01
DEBUG_STATS_RL:                  Gv (DYNAMICS)  max=  5.31755908727337E-02
DEBUG_STATS_RL:                  Gv (DYNAMICS) mean= -6.43607759844673E-03
DEBUG_STATS_RL:                  Gv (DYNAMICS) S.D.=  1.74595586593132E-02
DEBUG_STATS_RL:               GuNm1 (DYNAMICS)  min= -2.94347299884301E-07
DEBUG_STATS_RL:               GuNm1 (DYNAMICS)  max=  1.78770581560375E-07
DEBUG_STATS_RL:               GuNm1 (DYNAMICS) mean= -3.06311171945198E-09
DEBUG_STATS_RL:               GuNm1 (DYNAMICS) S.D.=  4.19614199163276E-08
DEBUG_STATS_RL:               GvNm1 (DYNAMICS)  min= -1.82273635415880E-07
DEBUG_STATS_RL:               GvNm1 (DYNAMICS)  max=  1.24273330978528E-07
DEBUG_STATS_RL:               GvNm1 (DYNAMICS) mean= -1.05360009952046E-09
DEBUG_STATS_RL:               GvNm1 (DYNAMICS) S.D.=  3.58773704868012E-08
DEBUG_STATS_RL:               GtNm1 (DYNAMICS)  min=  0.00000000000000E+00
DEBUG_STATS_RL:               GtNm1 (DYNAMICS)  max=  0.00000000000000E+00
DEBUG_STATS_RL:               GtNm1 (DYNAMICS) mean=  0.00000000000000E+00
DEBUG_STATS_RL:               GtNm1 (DYNAMICS) S.D.=  0.00000000000000E+00
DEBUG_STATS_RL:               GsNm1 (DYNAMICS)  min=  0.00000000000000E+00
DEBUG_STATS_RL:               GsNm1 (DYNAMICS)  max=  0.00000000000000E+00
DEBUG_STATS_RL:               GsNm1 (DYNAMICS) mean=  0.00000000000000E+00
DEBUG_STATS_RL:               GsNm1 (DYNAMICS) S.D.=  0.00000000000000E+00
(PID.TID 0000.0001) SOLVE_FOR_PRESSURE: putPmEinXvector =    F
DEBUG_STATS_RL:    cg2d_b (SOLVE_FOR_PRESSURE)  min= -7.45833771571459E+03
DEBUG_STATS_RL:    cg2d_b (SOLVE_FOR_PRESSURE)  max=  2.17494903027769E+03
DEBUG_STATS_RL:    cg2d_b (SOLVE_FOR_PRESSURE) mean=  4.18935997004155E-13
DEBUG_STATS_RL:    cg2d_b (SOLVE_FOR_PRESSURE) S.D.=  9.06377010650268E+02
 cg2d: Sum(rhs),rhsMax =   8.29197821516914E-15  1.20041496847834E+00
DEBUG_STATS_RL:    cg2d_x (SOLVE_FOR_PRESSURE)  min= -1.23196163368130E+00
DEBUG_STATS_RL:    cg2d_x (SOLVE_FOR_PRESSURE)  max=  3.23727429689848E+00
DEBUG_STATS_RL:    cg2d_x (SOLVE_FOR_PRESSURE) mean= -3.45194761148230E-02
DEBUG_STATS_RL:    cg2d_x (SOLVE_FOR_PRESSURE) S.D.=  7.10912240392561E-01
DEBUG_STATS_RL:          Uvel (THERMODYNAMICS)  min= -3.59096386964102E-02
DEBUG_STATS_RL:          Uvel (THERMODYNAMICS)  max=  1.01288605318195E-01
DEBUG_STATS_RL:          Uvel (THERMODYNAMICS) mean=  5.06442107691443E-03
DEBUG_STATS_RL:          Uvel (THERMODYNAMICS) S.D.=  1.40087544095653E-02
DEBUG_STATS_RL:          Vvel (THERMODYNAMICS)  min= -1.10756263988798E-01
DEBUG_STATS_RL:          Vvel (THERMODYNAMICS)  max=  7.07208418107748E-02
DEBUG_STATS_RL:          Vvel (THERMODYNAMICS) mean= -2.17557054828444E-03
DEBUG_STATS_RL:          Vvel (THERMODYNAMICS) S.D.=  1.80912833066385E-02
DEBUG_STATS_RL:          Wvel (THERMODYNAMICS)  min= -2.43811460414301E-04
DEBUG_STATS_RL:          Wvel (THERMODYNAMICS)  max=  3.28816353261790E-04
DEBUG_STATS_RL:          Wvel (THERMODYNAMICS) mean= -1.37923543342930E-07
DEBUG_STATS_RL:          Wvel (THERMODYNAMICS) S.D.=  2.75149300864468E-05
DEBUG_STATS_RL:         Theta (THERMODYNAMICS)  min= -1.96015217723737E+00
DEBUG_STATS_RL:         Theta (THERMODYNAMICS)  max=  1.32512671183370E+01
DEBUG_STATS_RL:         Theta (THERMODYNAMICS) mean=  2.41531606071968E+00
DEBUG_STATS_RL:         Theta (THERMODYNAMICS) S.D.=  2.57483151675911E+00
DEBUG_STATS_RL:          Salt (THERMODYNAMICS)  min=  2.76290307531745E+01
DEBUG_STATS_RL:          Salt (THERMODYNAMICS)  max=  3.54512307060718E+01
DEBUG_STATS_RL:          Salt (THERMODYNAMICS) mean=  3.39367446276238E+01
DEBUG_STATS_RL:          Salt (THERMODYNAMICS) S.D.=  1.15382313156805E+00
DEBUG_STATS_RL:         GtNm1 (THERMODYNAMICS)  min=  0.00000000000000E+00
DEBUG_STATS_RL:         GtNm1 (THERMODYNAMICS)  max=  0.00000000000000E+00
DEBUG_STATS_RL:         GtNm1 (THERMODYNAMICS) mean=  0.00000000000000E+00
DEBUG_STATS_RL:         GtNm1 (THERMODYNAMICS) S.D.=  0.00000000000000E+00
DEBUG_STATS_RL:         GsNm1 (THERMODYNAMICS)  min=  0.00000000000000E+00
DEBUG_STATS_RL:         GsNm1 (THERMODYNAMICS)  max=  0.00000000000000E+00
DEBUG_STATS_RL:         GsNm1 (THERMODYNAMICS) mean=  0.00000000000000E+00
DEBUG_STATS_RL:         GsNm1 (THERMODYNAMICS) S.D.=  0.00000000000000E+00
(PID.TID 0000.0001)  MDS_WRITE_FIELD: it,rec,kS,kL,kH=       1     2   1   1   1 file=m_sst_step.0000000001
(PID.TID 0000.0001)  MDS_READ_FIELD: opening global file: xx_atemp.effective.0000000001.data
(PID.TID 0000.0001) EXF_SET_FLD: processing field "climsss",  file: SSS_monthly.labsea1979
(PID.TID 0000.0001) EXF_SET_FLD:   myIter, count0, count1:         6      1      2
(PID.TID 0000.0001) EXF_SET_FLD:   first, changed, fac:   F   F    0.49180327868852458
(PID.TID 0000.0001) EXF_SET_FLD: processing field "uwind",  file: u10m.labsea1979
(PID.TID 0000.0001) EXF_SET_FLD:   myIter, count0, count1:         6      1      2
(PID.TID 0000.0001) EXF_SET_FLD:   first, changed, fac:   F   F    0.49180327868852458
(PID.TID 0000.0001) EXF_SET_FLD: processing field "vwind",  file: v10m.labsea1979
(PID.TID 0000.0001) EXF_SET_FLD:   myIter, count0, count1:         6      1      2
(PID.TID 0000.0001) EXF_SET_FLD:   first, changed, fac:   F   F    0.49180327868852458
(PID.TID 0000.0001) EXF_SET_FLD: processing field "atemp",  file: tair.labsea1979
(PID.TID 0000.0001) EXF_SET_FLD:   myIter, count0, count1:         6      1      2
(PID.TID 0000.0001) EXF_SET_FLD:   first, changed, fac:   F   F    0.49180327868852458
(PID.TID 0000.0001) EXF_SET_FLD: processing field "aqh",  file: qa.labsea1979
(PID.TID 0000.0001) EXF_SET_FLD:   myIter, count0, count1:         6      1      2
(PID.TID 0000.0001) EXF_SET_FLD:   first, changed, fac:   F   F    0.49180327868852458
(PID.TID 0000.0001) EXF_SET_FLD: processing field "precip",  file: prate.labsea1979
(PID.TID 0000.0001) EXF_SET_FLD:   myIter, count0, count1:         6      1      2
(PID.TID 0000.0001) EXF_SET_FLD:   first, changed, fac:   F   F    0.49180327868852458
(PID.TID 0000.0001) EXF_SET_FLD: processing field "swdown",  file: fsh.labsea1979
(PID.TID 0000.0001) EXF_SET_FLD:   myIter, count0, count1:         6      1      2
(PID.TID 0000.0001) EXF_SET_FLD:   first, changed, fac:   F   F    0.49180327868852458
(PID.TID 0000.0001) EXF_SET_FLD: processing field "lwdown",  file: flo.labsea1979
(PID.TID 0000.0001) EXF_SET_FLD:   myIter, count0, count1:         6      1      2
(PID.TID 0000.0001) EXF_SET_FLD:   first, changed, fac:   F   F    0.49180327868852458
DEBUG_STATS_RL: Uice pre  iter (SEAICE_LSR  1)  min= -1.19106759196614E-02
DEBUG_STATS_RL: Uice pre  iter (SEAICE_LSR  1)  max=  2.40859973799500E-01
DEBUG_STATS_RL: Uice pre  iter (SEAICE_LSR  1) mean=  7.02597534860948E-02
DEBUG_STATS_RL: Uice pre  iter (SEAICE_LSR  1) S.D.=  7.57773428259753E-02
DEBUG_STATS_RL: Vice pre  iter (SEAICE_LSR  1)  min= -1.74132342678207E-01
DEBUG_STATS_RL: Vice pre  iter (SEAICE_LSR  1)  max=  9.66358613081399E-02
DEBUG_STATS_RL: Vice pre  iter (SEAICE_LSR  1) mean= -4.28491368242810E-02
DEBUG_STATS_RL: Vice pre  iter (SEAICE_LSR  1) S.D.=  5.63763392291550E-02
DEBUG_STATS_RL: Uice pre  iter (SEAICE_LSR  2)  min= -1.30564509125757E-02
DEBUG_STATS_RL: Uice pre  iter (SEAICE_LSR  2)  max=  2.47901039964918E-01
DEBUG_STATS_RL: Uice pre  iter (SEAICE_LSR  2) mean=  6.80717062410296E-02
DEBUG_STATS_RL: Uice pre  iter (SEAICE_LSR  2) S.D.=  7.48548542542582E-02
DEBUG_STATS_RL: Vice pre  iter (SEAICE_LSR  2)  min= -1.68314830999124E-01
DEBUG_STATS_RL: Vice pre  iter (SEAICE_LSR  2)  max=  8.87290074915900E-02
DEBUG_STATS_RL: Vice pre  iter (SEAICE_LSR  2) mean= -4.61137817409455E-02
DEBUG_STATS_RL: Vice pre  iter (SEAICE_LSR  2) S.D.=  5.74118961796309E-02
DEBUG_STATS_RL:                EtaN (DYNAMICS)  min= -1.25510578434462E-01
DEBUG_STATS_RL:                EtaN (DYNAMICS)  max=  3.29809109672203E-01
DEBUG_STATS_RL:                EtaN (DYNAMICS) mean= -3.51679735470302E-03
DEBUG_STATS_RL:                EtaN (DYNAMICS) S.D.=  7.24267737471536E-02
DEBUG_STATS_RL:                Uvel (DYNAMICS)  min= -3.59096386964102E-02
DEBUG_STATS_RL:                Uvel (DYNAMICS)  max=  1.01288605318195E-01
DEBUG_STATS_RL:                Uvel (DYNAMICS) mean=  5.06442107691443E-03
DEBUG_STATS_RL:                Uvel (DYNAMICS) S.D.=  1.40087544095653E-02
DEBUG_STATS_RL:                Vvel (DYNAMICS)  min= -1.10756263988798E-01
DEBUG_STATS_RL:                Vvel (DYNAMICS)  max=  7.07208418107748E-02
DEBUG_STATS_RL:                Vvel (DYNAMICS) mean= -2.17557054828444E-03
DEBUG_STATS_RL:                Vvel (DYNAMICS) S.D.=  1.80912833066385E-02
DEBUG_STATS_RL:                Wvel (DYNAMICS)  min= -2.43811460414301E-04
DEBUG_STATS_RL:                Wvel (DYNAMICS)  max=  3.28816353261790E-04
DEBUG_STATS_RL:                Wvel (DYNAMICS) mean= -1.37923543342930E-07
DEBUG_STATS_RL:                Wvel (DYNAMICS) S.D.=  2.75149300864468E-05
DEBUG_STATS_RL:               Theta (DYNAMICS)  min= -1.96015217723737E+00
DEBUG_STATS_RL:               Theta (DYNAMICS)  max=  1.32512671183370E+01
DEBUG_STATS_RL:               Theta (DYNAMICS) mean=  2.41531606071968E+00
DEBUG_STATS_RL:               Theta (DYNAMICS) S.D.=  2.57483151675911E+00
DEBUG_STATS_RL:                Salt (DYNAMICS)  min=  2.76290307531745E+01
DEBUG_STATS_RL:                Salt (DYNAMICS)  max=  3.54512307060718E+01
DEBUG_STATS_RL:                Salt (DYNAMICS) mean=  3.39367446276238E+01
DEBUG_STATS_RL:                Salt (DYNAMICS) S.D.=  1.15382313156805E+00
DEBUG_STATS_RL:                  Gu (DYNAMICS)  min= -4.45840116890899E-02
DEBUG_STATS_RL:                  Gu (DYNAMICS)  max=  1.13252404039500E-01
DEBUG_STATS_RL:                  Gu (DYNAMICS) mean=  3.02808241161229E-03
DEBUG_STATS_RL:                  Gu (DYNAMICS) S.D.=  1.59063121238893E-02
DEBUG_STATS_RL:                  Gv (DYNAMICS)  min= -1.34630447324912E-01
DEBUG_STATS_RL:                  Gv (DYNAMICS)  max=  4.81174890382835E-02
DEBUG_STATS_RL:                  Gv (DYNAMICS) mean= -7.41639241987065E-03
DEBUG_STATS_RL:                  Gv (DYNAMICS) S.D.=  1.85638365104700E-02
DEBUG_STATS_RL:               GuNm1 (DYNAMICS)  min= -3.33271036892904E-07
DEBUG_STATS_RL:               GuNm1 (DYNAMICS)  max=  1.87479663955270E-07
DEBUG_STATS_RL:               GuNm1 (DYNAMICS) mean= -3.31200046769952E-09
DEBUG_STATS_RL:               GuNm1 (DYNAMICS) S.D.=  4.08419141881971E-08
DEBUG_STATS_RL:               GvNm1 (DYNAMICS)  min= -2.04912919624491E-07
DEBUG_STATS_RL:               GvNm1 (DYNAMICS)  max=  1.56710147054438E-07
DEBUG_STATS_RL:               GvNm1 (DYNAMICS) mean= -8.96938696731291E-10
DEBUG_STATS_RL:               GvNm1 (DYNAMICS) S.D.=  3.95873164870957E-08
DEBUG_STATS_RL:               GtNm1 (DYNAMICS)  min=  0.00000000000000E+00
DEBUG_STATS_RL:               GtNm1 (DYNAMICS)  max=  0.00000000000000E+00
DEBUG_STATS_RL:               GtNm1 (DYNAMICS) mean=  0.00000000000000E+00
DEBUG_STATS_RL:               GtNm1 (DYNAMICS) S.D.=  0.00000000000000E+00
DEBUG_STATS_RL:               GsNm1 (DYNAMICS)  min=  0.00000000000000E+00
DEBUG_STATS_RL:               GsNm1 (DYNAMICS)  max=  0.00000000000000E+00
DEBUG_STATS_RL:               GsNm1 (DYNAMICS) mean=  0.00000000000000E+00
DEBUG_STATS_RL:               GsNm1 (DYNAMICS) S.D.=  0.00000000000000E+00
DEBUG_STATS_RL:    cg2d_b (SOLVE_FOR_PRESSURE)  min= -7.43169656861245E+03
DEBUG_STATS_RL:    cg2d_b (SOLVE_FOR_PRESSURE)  max=  2.17598296942634E+03
DEBUG_STATS_RL:    cg2d_b (SOLVE_FOR_PRESSURE) mean=  6.96331881044898E-13
DEBUG_STATS_RL:    cg2d_b (SOLVE_FOR_PRESSURE) S.D.=  9.02750100849735E+02
 cg2d: Sum(rhs),rhsMax =   1.41067713066434E-14  1.19612709187932E+00
DEBUG_STATS_RL:    cg2d_x (SOLVE_FOR_PRESSURE)  min= -1.18794061890904E+00
DEBUG_STATS_RL:    cg2d_x (SOLVE_FOR_PRESSURE)  max=  3.24511049575726E+00
DEBUG_STATS_RL:    cg2d_x (SOLVE_FOR_PRESSURE) mean= -3.88654400025836E-02
DEBUG_STATS_RL:    cg2d_x (SOLVE_FOR_PRESSURE) S.D.=  6.81167535252279E-01
DEBUG_STATS_RL:          Uvel (THERMODYNAMICS)  min= -3.57601727936033E-02
DEBUG_STATS_RL:          Uvel (THERMODYNAMICS)  max=  1.04775938290593E-01
DEBUG_STATS_RL:          Uvel (THERMODYNAMICS) mean=  4.39725630125182E-03
DEBUG_STATS_RL:          Uvel (THERMODYNAMICS) S.D.=  1.39028540310335E-02
DEBUG_STATS_RL:          Vvel (THERMODYNAMICS)  min= -1.27584762387762E-01
DEBUG_STATS_RL:          Vvel (THERMODYNAMICS)  max=  6.50083276838834E-02
DEBUG_STATS_RL:          Vvel (THERMODYNAMICS) mean= -3.36887217582008E-03
DEBUG_STATS_RL:          Vvel (THERMODYNAMICS) S.D.=  1.85890275650197E-02
DEBUG_STATS_RL:          Wvel (THERMODYNAMICS)  min= -2.67954696014334E-04
DEBUG_STATS_RL:          Wvel (THERMODYNAMICS)  max=  3.29804232734301E-04
DEBUG_STATS_RL:          Wvel (THERMODYNAMICS) mean= -4.85616750767614E-08
DEBUG_STATS_RL:          Wvel (THERMODYNAMICS) S.D.=  2.84164537902804E-05
DEBUG_STATS_RL:         Theta (THERMODYNAMICS)  min= -1.95963016104374E+00
DEBUG_STATS_RL:         Theta (THERMODYNAMICS)  max=  1.32396343409662E+01
DEBUG_STATS_RL:         Theta (THERMODYNAMICS) mean=  2.41506584132490E+00
DEBUG_STATS_RL:         Theta (THERMODYNAMICS) S.D.=  2.57443936967394E+00
DEBUG_STATS_RL:          Salt (THERMODYNAMICS)  min=  2.76338867569799E+01
DEBUG_STATS_RL:          Salt (THERMODYNAMICS)  max=  3.54511617149686E+01
DEBUG_STATS_RL:          Salt (THERMODYNAMICS) mean=  3.39367496241626E+01
DEBUG_STATS_RL:          Salt (THERMODYNAMICS) S.D.=  1.15359229307638E+00
DEBUG_STATS_RL:         GtNm1 (THERMODYNAMICS)  min=  0.00000000000000E+00
DEBUG_STATS_RL:         GtNm1 (THERMODYNAMICS)  max=  0.00000000000000E+00
DEBUG_STATS_RL:         GtNm1 (THERMODYNAMICS) mean=  0.00000000000000E+00
DEBUG_STATS_RL:         GtNm1 (THERMODYNAMICS) S.D.=  0.00000000000000E+00
DEBUG_STATS_RL:         GsNm1 (THERMODYNAMICS)  min=  0.00000000000000E+00
DEBUG_STATS_RL:         GsNm1 (THERMODYNAMICS)  max=  0.00000000000000E+00
DEBUG_STATS_RL:         GsNm1 (THERMODYNAMICS) mean=  0.00000000000000E+00
DEBUG_STATS_RL:         GsNm1 (THERMODYNAMICS) S.D.=  0.00000000000000E+00
(PID.TID 0000.0001)  MDS_WRITE_FIELD: it,rec,kS,kL,kH=       1     3   1   1   1 file=m_sst_step.0000000001
(PID.TID 0000.0001)  MDS_READ_FIELD: opening global file: xx_atemp.effective.0000000001.data
(PID.TID 0000.0001) EXF_SET_FLD: processing field "climsss",  file: SSS_monthly.labsea1979
(PID.TID 0000.0001) EXF_SET_FLD:   myIter, count0, count1:         7      1      2
(PID.TID 0000.0001) EXF_SET_FLD:   first, changed, fac:   F   F    0.49043715846994540
(PID.TID 0000.0001) EXF_SET_FLD: processing field "uwind",  file: u10m.labsea1979
(PID.TID 0000.0001) EXF_SET_FLD:   myIter, count0, count1:         7      1      2
(PID.TID 0000.0001) EXF_SET_FLD:   first, changed, fac:   F   F    0.49043715846994540
(PID.TID 0000.0001) EXF_SET_FLD: processing field "vwind",  file: v10m.labsea1979
(PID.TID 0000.0001) EXF_SET_FLD:   myIter, count0, count1:         7      1      2
(PID.TID 0000.0001) EXF_SET_FLD:   first, changed, fac:   F   F    0.49043715846994540
(PID.TID 0000.0001) EXF_SET_FLD: processing field "atemp",  file: tair.labsea1979
(PID.TID 0000.0001) EXF_SET_FLD:   myIter, count0, count1:         7      1      2
(PID.TID 0000.0001) EXF_SET_FLD:   first, changed, fac:   F   F    0.49043715846994540
(PID.TID 0000.0001) EXF_SET_FLD: processing field "aqh",  file: qa.labsea1979
(PID.TID 0000.0001) EXF_SET_FLD:   myIter, count0, count1:         7      1      2
(PID.TID 0000.0001) EXF_SET_FLD:   first, changed, fac:   F   F    0.49043715846994540
(PID.TID 0000.0001) EXF_SET_FLD: processing field "precip",  file: prate.labsea1979
(PID.TID 0000.0001) EXF_SET_FLD:   myIter, count0, count1:         7      1      2
(PID.TID 0000.0001) EXF_SET_FLD:   first, changed, fac:   F   F    0.49043715846994540
(PID.TID 0000.0001) EXF_SET_FLD: processing field "swdown",  file: fsh.labsea1979
(PID.TID 0000.0001) EXF_SET_FLD:   myIter, count0, count1:         7      1      2
(PID.TID 0000.0001) EXF_SET_FLD:   first, changed, fac:   F   F    0.49043715846994540
(PID.TID 0000.0001) EXF_SET_FLD: processing field "lwdown",  file: flo.labsea1979
(PID.TID 0000.0001) EXF_SET_FLD:   myIter, count0, count1:         7      1      2
(PID.TID 0000.0001) EXF_SET_FLD:   first, changed, fac:   F   F    0.49043715846994540
DEBUG_STATS_RL: Uice pre  iter (SEAICE_LSR  1)  min= -1.54549194525866E-02
DEBUG_STATS_RL: Uice pre  iter (SEAICE_LSR  1)  max=  2.53524286292195E-01
DEBUG_STATS_RL: Uice pre  iter (SEAICE_LSR  1) mean=  6.68799365320119E-02
DEBUG_STATS_RL: Uice pre  iter (SEAICE_LSR  1) S.D.=  7.54478852962580E-02
DEBUG_STATS_RL: Vice pre  iter (SEAICE_LSR  1)  min= -1.68373183021268E-01
DEBUG_STATS_RL: Vice pre  iter (SEAICE_LSR  1)  max=  8.10859368452303E-02
DEBUG_STATS_RL: Vice pre  iter (SEAICE_LSR  1) mean= -4.94905385200998E-02
DEBUG_STATS_RL: Vice pre  iter (SEAICE_LSR  1) S.D.=  5.89447951203408E-02
DEBUG_STATS_RL: Uice pre  iter (SEAICE_LSR  2)  min= -1.68104910559763E-02
DEBUG_STATS_RL: Uice pre  iter (SEAICE_LSR  2)  max=  2.51381266335640E-01
DEBUG_STATS_RL: Uice pre  iter (SEAICE_LSR  2) mean=  6.26056742417120E-02
DEBUG_STATS_RL: Uice pre  iter (SEAICE_LSR  2) S.D.=  7.23215228186589E-02
DEBUG_STATS_RL: Vice pre  iter (SEAICE_LSR  2)  min= -1.70146515867233E-01
DEBUG_STATS_RL: Vice pre  iter (SEAICE_LSR  2)  max=  7.01571636850258E-02
DEBUG_STATS_RL: Vice pre  iter (SEAICE_LSR  2) mean= -5.12009841743803E-02
DEBUG_STATS_RL: Vice pre  iter (SEAICE_LSR  2) S.D.=  5.84735965012139E-02
DEBUG_STATS_RL:                EtaN (DYNAMICS)  min= -1.21025777222894E-01
DEBUG_STATS_RL:                EtaN (DYNAMICS)  max=  3.30607450971643E-01
DEBUG_STATS_RL:                EtaN (DYNAMICS) mean= -3.95955825447081E-03
DEBUG_STATS_RL:                EtaN (DYNAMICS) S.D.=  6.93964235759688E-02
DEBUG_STATS_RL:                Uvel (DYNAMICS)  min= -3.57601727936033E-02
DEBUG_STATS_RL:                Uvel (DYNAMICS)  max=  1.04775938290593E-01
DEBUG_STATS_RL:                Uvel (DYNAMICS) mean=  4.39725630125182E-03
DEBUG_STATS_RL:                Uvel (DYNAMICS) S.D.=  1.39028540310335E-02
DEBUG_STATS_RL:                Vvel (DYNAMICS)  min= -1.27584762387762E-01
DEBUG_STATS_RL:                Vvel (DYNAMICS)  max=  6.50083276838834E-02
DEBUG_STATS_RL:                Vvel (DYNAMICS) mean= -3.36887217582008E-03
DEBUG_STATS_RL:                Vvel (DYNAMICS) S.D.=  1.85890275650197E-02
DEBUG_STATS_RL:                Wvel (DYNAMICS)  min= -2.67954696014334E-04
DEBUG_STATS_RL:                Wvel (DYNAMICS)  max=  3.29804232734301E-04
DEBUG_STATS_RL:                Wvel (DYNAMICS) mean= -4.85616750767614E-08
DEBUG_STATS_RL:                Wvel (DYNAMICS) S.D.=  2.84164537902804E-05
DEBUG_STATS_RL:               Theta (DYNAMICS)  min= -1.95963016104374E+00
DEBUG_STATS_RL:               Theta (DYNAMICS)  max=  1.32396343409662E+01
DEBUG_STATS_RL:               Theta (DYNAMICS) mean=  2.41506584132490E+00
DEBUG_STATS_RL:               Theta (DYNAMICS) S.D.=  2.57443936967394E+00
DEBUG_STATS_RL:                Salt (DYNAMICS)  min=  2.76338867569799E+01
DEBUG_STATS_RL:                Salt (DYNAMICS)  max=  3.54511617149686E+01
DEBUG_STATS_RL:                Salt (DYNAMICS) mean=  3.39367496241626E+01
DEBUG_STATS_RL:                Salt (DYNAMICS) S.D.=  1.15359229307638E+00
DEBUG_STATS_RL:                  Gu (DYNAMICS)  min= -5.18639383664093E-02
DEBUG_STATS_RL:                  Gu (DYNAMICS)  max=  1.08500044377568E-01
DEBUG_STATS_RL:                  Gu (DYNAMICS) mean=  2.22152146945400E-03
DEBUG_STATS_RL:                  Gu (DYNAMICS) S.D.=  1.62488741545267E-02
DEBUG_STATS_RL:                  Gv (DYNAMICS)  min= -1.40216393355448E-01
DEBUG_STATS_RL:                  Gv (DYNAMICS)  max=  4.07135165171732E-02
DEBUG_STATS_RL:                  Gv (DYNAMICS) mean= -7.84361289825861E-03
DEBUG_STATS_RL:                  Gv (DYNAMICS) S.D.=  1.86090017356288E-02
DEBUG_STATS_RL:               GuNm1 (DYNAMICS)  min= -3.48473911940034E-07
DEBUG_STATS_RL:               GuNm1 (DYNAMICS)  max=  1.90416017948021E-07
DEBUG_STATS_RL:               GuNm1 (DYNAMICS) mean= -3.12306477014106E-09
DEBUG_STATS_RL:               GuNm1 (DYNAMICS) S.D.=  4.09417632400134E-08
DEBUG_STATS_RL:               GvNm1 (DYNAMICS)  min= -2.15359173477236E-07
DEBUG_STATS_RL:               GvNm1 (DYNAMICS)  max=  1.82438063100004E-07
DEBUG_STATS_RL:               GvNm1 (DYNAMICS) mean= -6.53519601921780E-10
DEBUG_STATS_RL:               GvNm1 (DYNAMICS) S.D.=  4.16452354556348E-08
DEBUG_STATS_RL:               GtNm1 (DYNAMICS)  min=  0.00000000000000E+00
DEBUG_STATS_RL:               GtNm1 (DYNAMICS)  max=  0.00000000000000E+00
DEBUG_STATS_RL:               GtNm1 (DYNAMICS) mean=  0.00000000000000E+00
DEBUG_STATS_RL:               GtNm1 (DYNAMICS) S.D.=  0.00000000000000E+00
DEBUG_STATS_RL:               GsNm1 (DYNAMICS)  min=  0.00000000000000E+00
DEBUG_STATS_RL:               GsNm1 (DYNAMICS)  max=  0.00000000000000E+00
DEBUG_STATS_RL:               GsNm1 (DYNAMICS) mean=  0.00000000000000E+00
DEBUG_STATS_RL:               GsNm1 (DYNAMICS) S.D.=  0.00000000000000E+00
DEBUG_STATS_RL:    cg2d_b (SOLVE_FOR_PRESSURE)  min= -7.37985604508148E+03
DEBUG_STATS_RL:    cg2d_b (SOLVE_FOR_PRESSURE)  max=  2.18366607280435E+03
DEBUG_STATS_RL:    cg2d_b (SOLVE_FOR_PRESSURE) mean=  6.18645875268461E-13
DEBUG_STATS_RL:    cg2d_b (SOLVE_FOR_PRESSURE) S.D.=  8.98963545839594E+02
 cg2d: Sum(rhs),rhsMax =   1.34267597040605E-14  1.18778339080378E+00
DEBUG_STATS_RL:    cg2d_x (SOLVE_FOR_PRESSURE)  min= -1.13929441834640E+00
DEBUG_STATS_RL:    cg2d_x (SOLVE_FOR_PRESSURE)  max=  3.20616731162253E+00
DEBUG_STATS_RL:    cg2d_x (SOLVE_FOR_PRESSURE) mean= -4.15672442271453E-02
DEBUG_STATS_RL:    cg2d_x (SOLVE_FOR_PRESSURE) S.D.=  6.51074617232215E-01
DEBUG_STATS_RL:          Uvel (THERMODYNAMICS)  min= -4.34802359621465E-02
DEBUG_STATS_RL:          Uvel (THERMODYNAMICS)  max=  9.99752242998808E-02
DEBUG_STATS_RL:          Uvel (THERMODYNAMICS) mean=  3.48264152589957E-03
DEBUG_STATS_RL:          Uvel (THERMODYNAMICS) S.D.=  1.35343125506116E-02
DEBUG_STATS_RL:          Vvel (THERMODYNAMICS)  min= -1.33439207289254E-01
DEBUG_STATS_RL:          Vvel (THERMODYNAMICS)  max=  5.60260700766945E-02
DEBUG_STATS_RL:          Vvel (THERMODYNAMICS) mean= -4.02696574872961E-03
DEBUG_STATS_RL:          Vvel (THERMODYNAMICS) S.D.=  1.80273334212797E-02
DEBUG_STATS_RL:          Wvel (THERMODYNAMICS)  min= -2.73348162229354E-04
DEBUG_STATS_RL:          Wvel (THERMODYNAMICS)  max=  3.13596923283671E-04
DEBUG_STATS_RL:          Wvel (THERMODYNAMICS) mean=  4.73709411313520E-08
DEBUG_STATS_RL:          Wvel (THERMODYNAMICS) S.D.=  2.82661454219204E-05
DEBUG_STATS_RL:         Theta (THERMODYNAMICS)  min= -1.95943609422387E+00
DEBUG_STATS_RL:         Theta (THERMODYNAMICS)  max=  1.32225113409295E+01
DEBUG_STATS_RL:         Theta (THERMODYNAMICS) mean=  2.41480286619418E+00
DEBUG_STATS_RL:         Theta (THERMODYNAMICS) S.D.=  2.57398860030337E+00
DEBUG_STATS_RL:          Salt (THERMODYNAMICS)  min=  2.76387468555707E+01
DEBUG_STATS_RL:          Salt (THERMODYNAMICS)  max=  3.54510358217953E+01
DEBUG_STATS_RL:          Salt (THERMODYNAMICS) mean=  3.39367601804946E+01
DEBUG_STATS_RL:          Salt (THERMODYNAMICS) S.D.=  1.15334890349729E+00
DEBUG_STATS_RL:         GtNm1 (THERMODYNAMICS)  min=  0.00000000000000E+00
DEBUG_STATS_RL:         GtNm1 (THERMODYNAMICS)  max=  0.00000000000000E+00
DEBUG_STATS_RL:         GtNm1 (THERMODYNAMICS) mean=  0.00000000000000E+00
DEBUG_STATS_RL:         GtNm1 (THERMODYNAMICS) S.D.=  0.00000000000000E+00
DEBUG_STATS_RL:         GsNm1 (THERMODYNAMICS)  min=  0.00000000000000E+00
DEBUG_STATS_RL:         GsNm1 (THERMODYNAMICS)  max=  0.00000000000000E+00
DEBUG_STATS_RL:         GsNm1 (THERMODYNAMICS) mean=  0.00000000000000E+00
DEBUG_STATS_RL:         GsNm1 (THERMODYNAMICS) S.D.=  0.00000000000000E+00
(PID.TID 0000.0001)  MDS_WRITE_FIELD: it,rec,kS,kL,kH=       1     4   1   1   1 file=m_sst_step.0000000001
(PID.TID 0000.0001)  MDS_READ_FIELD: opening global file: xx_atemp.effective.0000000001.data
(PID.TID 0000.0001) EXF_SET_FLD: processing field "climsss",  file: SSS_monthly.labsea1979
(PID.TID 0000.0001) EXF_SET_FLD:   myIter, count0, count1:         8      1      2
(PID.TID 0000.0001) EXF_SET_FLD:   first, changed, fac:   F   F    0.48907103825136611
(PID.TID 0000.0001) EXF_SET_FLD: processing field "uwind",  file: u10m.labsea1979
(PID.TID 0000.0001) EXF_SET_FLD:   myIter, count0, count1:         8      1      2
(PID.TID 0000.0001) EXF_SET_FLD:   first, changed, fac:   F   F    0.48907103825136611
(PID.TID 0000.0001) EXF_SET_FLD: processing field "vwind",  file: v10m.labsea1979
(PID.TID 0000.0001) EXF_SET_FLD:   myIter, count0, count1:         8      1      2
(PID.TID 0000.0001) EXF_SET_FLD:   first, changed, fac:   F   F    0.48907103825136611
(PID.TID 0000.0001) EXF_SET_FLD: processing field "atemp",  file: tair.labsea1979
(PID.TID 0000.0001) EXF_SET_FLD:   myIter, count0, count1:         8      1      2
(PID.TID 0000.0001) EXF_SET_FLD:   first, changed, fac:   F   F    0.48907103825136611
(PID.TID 0000.0001) EXF_SET_FLD: processing field "aqh",  file: qa.labsea1979
(PID.TID 0000.0001) EXF_SET_FLD:   myIter, count0, count1:         8      1      2
(PID.TID 0000.0001) EXF_SET_FLD:   first, changed, fac:   F   F    0.48907103825136611
(PID.TID 0000.0001) EXF_SET_FLD: processing field "precip",  file: prate.labsea1979
(PID.TID 0000.0001) EXF_SET_FLD:   myIter, count0, count1:         8      1      2
(PID.TID 0000.0001) EXF_SET_FLD:   first, changed, fac:   F   F    0.48907103825136611
(PID.TID 0000.0001) EXF_SET_FLD: processing field "swdown",  file: fsh.labsea1979
(PID.TID 0000.0001) EXF_SET_FLD:   myIter, count0, count1:         8      1      2
(PID.TID 0000.0001) EXF_SET_FLD:   first, changed, fac:   F   F    0.48907103825136611
(PID.TID 0000.0001) EXF_SET_FLD: processing field "lwdown",  file: flo.labsea1979
(PID.TID 0000.0001) EXF_SET_FLD:   myIter, count0, count1:         8      1      2
(PID.TID 0000.0001) EXF_SET_FLD:   first, changed, fac:   F   F    0.48907103825136611
DEBUG_STATS_RL: Uice pre  iter (SEAICE_LSR  1)  min= -1.95687208100102E-02
DEBUG_STATS_RL: Uice pre  iter (SEAICE_LSR  1)  max=  2.56695252608154E-01
DEBUG_STATS_RL: Uice pre  iter (SEAICE_LSR  1) mean=  6.10102626008752E-02
DEBUG_STATS_RL: Uice pre  iter (SEAICE_LSR  1) S.D.=  7.26515133443026E-02
DEBUG_STATS_RL: Vice pre  iter (SEAICE_LSR  1)  min= -1.74351841639993E-01
DEBUG_STATS_RL: Vice pre  iter (SEAICE_LSR  1)  max=  6.17815719868620E-02
DEBUG_STATS_RL: Vice pre  iter (SEAICE_LSR  1) mean= -5.34332922103127E-02
DEBUG_STATS_RL: Vice pre  iter (SEAICE_LSR  1) S.D.=  5.91879685811095E-02
DEBUG_STATS_RL: Uice pre  iter (SEAICE_LSR  2)  min= -2.10631196463131E-02
DEBUG_STATS_RL: Uice pre  iter (SEAICE_LSR  2)  max=  2.47741110498678E-01
DEBUG_STATS_RL: Uice pre  iter (SEAICE_LSR  2) mean=  5.58563099525574E-02
DEBUG_STATS_RL: Uice pre  iter (SEAICE_LSR  2) S.D.=  6.83562873807025E-02
DEBUG_STATS_RL: Vice pre  iter (SEAICE_LSR  2)  min= -1.71270231909308E-01
DEBUG_STATS_RL: Vice pre  iter (SEAICE_LSR  2)  max=  5.00408736690829E-02
DEBUG_STATS_RL: Vice pre  iter (SEAICE_LSR  2) mean= -5.35471708937630E-02
DEBUG_STATS_RL: Vice pre  iter (SEAICE_LSR  2) S.D.=  5.75117440524867E-02
DEBUG_STATS_RL:                EtaN (DYNAMICS)  min= -1.16069768363258E-01
DEBUG_STATS_RL:                EtaN (DYNAMICS)  max=  3.26639972250553E-01
DEBUG_STATS_RL:                EtaN (DYNAMICS) mean= -4.23481440025525E-03
DEBUG_STATS_RL:                EtaN (DYNAMICS) S.D.=  6.63305979494085E-02
DEBUG_STATS_RL:                Uvel (DYNAMICS)  min= -4.34802359621465E-02
DEBUG_STATS_RL:                Uvel (DYNAMICS)  max=  9.99752242998808E-02
DEBUG_STATS_RL:                Uvel (DYNAMICS) mean=  3.48264152589957E-03
DEBUG_STATS_RL:                Uvel (DYNAMICS) S.D.=  1.35343125506116E-02
DEBUG_STATS_RL:                Vvel (DYNAMICS)  min= -1.33439207289254E-01
DEBUG_STATS_RL:                Vvel (DYNAMICS)  max=  5.60260700766945E-02
DEBUG_STATS_RL:                Vvel (DYNAMICS) mean= -4.02696574872961E-03
DEBUG_STATS_RL:                Vvel (DYNAMICS) S.D.=  1.80273334212797E-02
DEBUG_STATS_RL:                Wvel (DYNAMICS)  min= -2.73348162229354E-04
DEBUG_STATS_RL:                Wvel (DYNAMICS)  max=  3.13596923283671E-04
DEBUG_STATS_RL:                Wvel (DYNAMICS) mean=  4.73709411313520E-08
DEBUG_STATS_RL:                Wvel (DYNAMICS) S.D.=  2.82661454219204E-05
DEBUG_STATS_RL:               Theta (DYNAMICS)  min= -1.95943609422387E+00
DEBUG_STATS_RL:               Theta (DYNAMICS)  max=  1.32225113409295E+01
DEBUG_STATS_RL:               Theta (DYNAMICS) mean=  2.41480286619418E+00
DEBUG_STATS_RL:               Theta (DYNAMICS) S.D.=  2.57398860030337E+00
DEBUG_STATS_RL:                Salt (DYNAMICS)  min=  2.76387468555707E+01
DEBUG_STATS_RL:                Salt (DYNAMICS)  max=  3.54510358217953E+01
DEBUG_STATS_RL:                Salt (DYNAMICS) mean=  3.39367601804946E+01
DEBUG_STATS_RL:                Salt (DYNAMICS) S.D.=  1.15334890349729E+00
DEBUG_STATS_RL:                  Gu (DYNAMICS)  min= -5.98368153074020E-02
DEBUG_STATS_RL:                  Gu (DYNAMICS)  max=  9.68873121299251E-02
DEBUG_STATS_RL:                  Gu (DYNAMICS) mean=  1.30194972947503E-03
DEBUG_STATS_RL:                  Gu (DYNAMICS) S.D.=  1.61566615235326E-02
DEBUG_STATS_RL:                  Gv (DYNAMICS)  min= -1.36271217267994E-01
DEBUG_STATS_RL:                  Gv (DYNAMICS)  max=  3.83573237348583E-02
DEBUG_STATS_RL:                  Gv (DYNAMICS) mean= -7.71950831958569E-03
DEBUG_STATS_RL:                  Gv (DYNAMICS) S.D.=  1.77533563667874E-02
DEBUG_STATS_RL:               GuNm1 (DYNAMICS)  min= -3.40955168137046E-07
DEBUG_STATS_RL:               GuNm1 (DYNAMICS)  max=  1.82641400821284E-07
DEBUG_STATS_RL:               GuNm1 (DYNAMICS) mean= -2.79196714442664E-09
DEBUG_STATS_RL:               GuNm1 (DYNAMICS) S.D.=  4.07453533304239E-08
DEBUG_STATS_RL:               GvNm1 (DYNAMICS)  min= -2.14559263714299E-07
DEBUG_STATS_RL:               GvNm1 (DYNAMICS)  max=  1.94148824775153E-07
DEBUG_STATS_RL:               GvNm1 (DYNAMICS) mean= -4.04169206802268E-10
DEBUG_STATS_RL:               GvNm1 (DYNAMICS) S.D.=  4.19222729579498E-08
DEBUG_STATS_RL:               GtNm1 (DYNAMICS)  min=  0.00000000000000E+00
DEBUG_STATS_RL:               GtNm1 (DYNAMICS)  max=  0.00000000000000E+00
DEBUG_STATS_RL:               GtNm1 (DYNAMICS) mean=  0.00000000000000E+00
DEBUG_STATS_RL:               GtNm1 (DYNAMICS) S.D.=  0.00000000000000E+00
DEBUG_STATS_RL:               GsNm1 (DYNAMICS)  min=  0.00000000000000E+00
DEBUG_STATS_RL:               GsNm1 (DYNAMICS)  max=  0.00000000000000E+00
DEBUG_STATS_RL:               GsNm1 (DYNAMICS) mean=  0.00000000000000E+00
DEBUG_STATS_RL:               GsNm1 (DYNAMICS) S.D.=  0.00000000000000E+00
DEBUG_STATS_RL:    cg2d_b (SOLVE_FOR_PRESSURE)  min= -7.29975929937793E+03
DEBUG_STATS_RL:    cg2d_b (SOLVE_FOR_PRESSURE)  max=  2.19478299507054E+03
DEBUG_STATS_RL:    cg2d_b (SOLVE_FOR_PRESSURE) mean= -3.96767063648440E-13
DEBUG_STATS_RL:    cg2d_b (SOLVE_FOR_PRESSURE) S.D.=  8.94146290227710E+02
 cg2d: Sum(rhs),rhsMax =  -6.92501611609941E-15  1.17489186776824E+00
DEBUG_STATS_RL:    cg2d_x (SOLVE_FOR_PRESSURE)  min= -1.08771127617308E+00
DEBUG_STATS_RL:    cg2d_x (SOLVE_FOR_PRESSURE)  max=  3.12128519797376E+00
DEBUG_STATS_RL:    cg2d_x (SOLVE_FOR_PRESSURE) mean= -4.19588396852395E-02
DEBUG_STATS_RL:    cg2d_x (SOLVE_FOR_PRESSURE) S.D.=  6.20262122262901E-01
DEBUG_STATS_RL:          Uvel (THERMODYNAMICS)  min= -5.12375198242059E-02
DEBUG_STATS_RL:          Uvel (THERMODYNAMICS)  max=  8.84896388076339E-02
DEBUG_STATS_RL:          Uvel (THERMODYNAMICS) mean=  2.55769138538291E-03
DEBUG_STATS_RL:          Uvel (THERMODYNAMICS) S.D.=  1.29064693910456E-02
DEBUG_STATS_RL:          Vvel (THERMODYNAMICS)  min= -1.29344604199479E-01
DEBUG_STATS_RL:          Vvel (THERMODYNAMICS)  max=  4.58633296186249E-02
DEBUG_STATS_RL:          Vvel (THERMODYNAMICS) mean= -4.14107843006319E-03
DEBUG_STATS_RL:          Vvel (THERMODYNAMICS) S.D.=  1.66082836245794E-02
DEBUG_STATS_RL:          Wvel (THERMODYNAMICS)  min= -2.60848991809587E-04
DEBUG_STATS_RL:          Wvel (THERMODYNAMICS)  max=  2.85731299794369E-04
DEBUG_STATS_RL:          Wvel (THERMODYNAMICS) mean=  1.36793666178293E-07
DEBUG_STATS_RL:          Wvel (THERMODYNAMICS) S.D.=  2.70580054557619E-05
DEBUG_STATS_RL:         Theta (THERMODYNAMICS)  min= -1.95932886747261E+00
DEBUG_STATS_RL:         Theta (THERMODYNAMICS)  max=  1.32010303660582E+01
DEBUG_STATS_RL:         Theta (THERMODYNAMICS) mean=  2.41452315045422E+00
DEBUG_STATS_RL:         Theta (THERMODYNAMICS) S.D.=  2.57350774067654E+00
DEBUG_STATS_RL:          Salt (THERMODYNAMICS)  min=  2.76435505129419E+01
DEBUG_STATS_RL:          Salt (THERMODYNAMICS)  max=  3.54508660670958E+01
DEBUG_STATS_RL:          Salt (THERMODYNAMICS) mean=  3.39367749828872E+01
DEBUG_STATS_RL:          Salt (THERMODYNAMICS) S.D.=  1.15309738582237E+00
DEBUG_STATS_RL:         GtNm1 (THERMODYNAMICS)  min=  0.00000000000000E+00
DEBUG_STATS_RL:         GtNm1 (THERMODYNAMICS)  max=  0.00000000000000E+00
DEBUG_STATS_RL:         GtNm1 (THERMODYNAMICS) mean=  0.00000000000000E+00
DEBUG_STATS_RL:         GtNm1 (THERMODYNAMICS) S.D.=  0.00000000000000E+00
DEBUG_STATS_RL:         GsNm1 (THERMODYNAMICS)  min=  0.00000000000000E+00
DEBUG_STATS_RL:         GsNm1 (THERMODYNAMICS)  max=  0.00000000000000E+00
DEBUG_STATS_RL:         GsNm1 (THERMODYNAMICS) mean=  0.00000000000000E+00
DEBUG_STATS_RL:         GsNm1 (THERMODYNAMICS) S.D.=  0.00000000000000E+00
(PID.TID 0000.0001) Did not write pickup because writePickupAtEnd = FALSE
(PID.TID 0000.0001)  MDS_WRITE_FIELD: it,rec,kS,kL,kH=       1     5   1   1   1 file=m_sst_step.0000000001
(PID.TID 0000.0001) gencost # 03
(PID.TID 0000.0001)  MDS_READ_FIELD: opening global file: sigma_sst.bin
(PID.TID 0000.0001)  MDS_READ_FIELD: opening global file: m_sst_step.0000000001.data
(PID.TID 0000.0001)  MDS_READ_FIELD: opening global file: labsea_SST_fields_t5
(PID.TID 0000.0001)  MDS_WRITE_FIELD: it,rec,kS,kL,kH=       1     1   1   1   1 file=misfit_sst
(PID.TID 0000.0001)  MDS_READ_FIELD: opening global file: sigma_sst.bin
(PID.TID 0000.0001)  MDS_READ_FIELD: opening global file: m_sst_step.0000000001.data
(PID.TID 0000.0001)  MDS_READ_FIELD: opening global file: labsea_SST_fields_t5
(PID.TID 0000.0001)  MDS_WRITE_FIELD: it,rec,kS,kL,kH=       1     2   1   1   1 file=misfit_sst
(PID.TID 0000.0001)  MDS_READ_FIELD: opening global file: sigma_sst.bin
(PID.TID 0000.0001)  MDS_READ_FIELD: opening global file: m_sst_step.0000000001.data
(PID.TID 0000.0001)  MDS_READ_FIELD: opening global file: labsea_SST_fields_t5
(PID.TID 0000.0001)  MDS_WRITE_FIELD: it,rec,kS,kL,kH=       1     3   1   1   1 file=misfit_sst
(PID.TID 0000.0001)  MDS_READ_FIELD: opening global file: sigma_sst.bin
(PID.TID 0000.0001)  MDS_READ_FIELD: opening global file: m_sst_step.0000000001.data
(PID.TID 0000.0001)  MDS_READ_FIELD: opening global file: labsea_SST_fields_t5
(PID.TID 0000.0001)  MDS_WRITE_FIELD: it,rec,kS,kL,kH=       1     4   1   1   1 file=misfit_sst
(PID.TID 0000.0001)  MDS_READ_FIELD: opening global file: sigma_sst.bin
(PID.TID 0000.0001)  MDS_READ_FIELD: opening global file: m_sst_step.0000000001.data
(PID.TID 0000.0001)  MDS_READ_FIELD: opening global file: labsea_SST_fields_t5
(PID.TID 0000.0001)  MDS_WRITE_FIELD: it,rec,kS,kL,kH=       1     5   1   1   1 file=misfit_sst
(PID.TID 0000.0001)  MDS_READ_FIELD: opening global file: xx_atemp.0000000001.data
(PID.TID 0000.0001)  MDS_READ_FIELD: opening global file: xx_atemp.0000000001.data
(PID.TID 0000.0001)  MDS_READ_FIELD: opening global file: xx_atemp.0000000001.data
(PID.TID 0000.0001)  MDS_READ_FIELD: opening global file: xx_atemp.0000000001.data
(PID.TID 0000.0001)  MDS_READ_FIELD: opening global file: xx_atemp.0000000001.data
(PID.TID 0000.0001)  MDS_READ_FIELD: opening global file: xx_atemp.0000000001.data
(PID.TID 0000.0001)  MDS_READ_FIELD: opening global file: xx_atemp.0000000001.data
(PID.TID 0000.0001)  MDS_READ_FIELD: opening global file: xx_atemp.0000000001.data
(PID.TID 0000.0001)  MDS_READ_FIELD: opening global file: xx_atemp.0000000001.data
(PID.TID 0000.0001)  MDS_READ_FIELD: opening global file: xx_atemp.0000000001.data
(PID.TID 0000.0001)  MDS_READ_FIELD: opening global file: xx_atemp.0000000001.data
 --> f_ice     = 0.000000000000000D+00
 --> f_smrarea = 0.000000000000000D+00
 --> f_smrarea = 0.000000000000000D+00
 --> f_smrarea = 0.000000000000000D+00
(PID.TID 0000.0001)  --> f_gencost = 0.527453128215446D+04 3
(PID.TID 0000.0001)  --> f_gentim2d = 0.243375020010000D+03 1
(PID.TID 0000.0001)  --> fc               = 0.527453128215446D+04
(PID.TID 0000.0001)  cost_Final: final cost function =  0.527453128215446D+04
(PID.TID 0000.0001) 
(PID.TID 0000.0001)              cost function evaluation finished.
(PID.TID 0000.0001) 
(PID.TID 0000.0001)   early fc =  0.000000000000000D+00
(PID.TID 0000.0001)   local fc =  0.527453128215446D+04
(PID.TID 0000.0001)  global fc =  0.527453128215446D+04
(PID.TID 0000.0001) grdchk perturb(+)fc: fcpertplus  =  5.27453128215446E+03
(PID.TID 0000.0001)  MDS_READ_FIELD: opening global file: xx_atemp.0000000001.data
(PID.TID 0000.0001)  MDS_WRITE_FIELD: it,rec,kS,kL,kH=       1     1   1   1   1 file=xx_atemp.0000000001
(PID.TID 0000.0001)  MDS_READ_FIELD: opening global file: xx_atemp.0000000001.data
(PID.TID 0000.0001)  MDS_WRITE_FIELD: it,rec,kS,kL,kH=       1     1   1   1   1 file=xx_atemp.0000000001
(PID.TID 0000.0001)  MDS_READ_META: opening file: pickup.0000000005.meta
(PID.TID 0000.0001)  nRecords = 141 ; filePrec =  64 ; fileIter =         5
(PID.TID 0000.0001)     nDims =   2 , dims:
(PID.TID 0000.0001)    1:  20   1  20
(PID.TID 0000.0001)    2:  16   1  16
(PID.TID 0000.0001)     nFlds =   9 , nFl3D =   6 , fields:
(PID.TID 0000.0001)  >Uvel    < >Vvel    < >Theta   < >Salt    < >GuNm1   < >GvNm1   < >EtaN    < >dEtaHdt < >EtaH    <
(PID.TID 0000.0001) missingVal=  1.00000000000000E+00 ; nTimRec =   1 , timeList:
(PID.TID 0000.0001)   1.800000000000E+04
(PID.TID 0000.0001) READ_MFLDS_3D_RL: read field: "Uvel    ", #   1 in fldList, rec=   1
(PID.TID 0000.0001)  MDS_READ_FIELD: opening global file: pickup.0000000005.data
(PID.TID 0000.0001) READ_MFLDS_3D_RL: read field: "Vvel    ", #   2 in fldList, rec=   2
(PID.TID 0000.0001)  MDS_READ_FIELD: opening global file: pickup.0000000005.data
(PID.TID 0000.0001) READ_MFLDS_3D_RL: read field: "Theta   ", #   3 in fldList, rec=   3
(PID.TID 0000.0001)  MDS_READ_FIELD: opening global file: pickup.0000000005.data
(PID.TID 0000.0001) READ_MFLDS_3D_RL: read field: "Salt    ", #   4 in fldList, rec=   4
(PID.TID 0000.0001)  MDS_READ_FIELD: opening global file: pickup.0000000005.data
(PID.TID 0000.0001) READ_MFLDS_3D_RL: read field: "GuNm1   ", #   5 in fldList, rec=   5
(PID.TID 0000.0001)  MDS_READ_FIELD: opening global file: pickup.0000000005.data
(PID.TID 0000.0001) READ_MFLDS_3D_RL: read field: "GvNm1   ", #   6 in fldList, rec=   6
(PID.TID 0000.0001)  MDS_READ_FIELD: opening global file: pickup.0000000005.data
(PID.TID 0000.0001) READ_MFLDS_3D_RL: read field: "EtaN    ", #   7 in fldList, rec= 139
(PID.TID 0000.0001)  MDS_READ_FIELD: opening global file: pickup.0000000005.data
(PID.TID 0000.0001) READ_MFLDS_CHECK: - normal end ; reset MFLDS file-name: pickup.0000000005
(PID.TID 0000.0001)  MDS_READ_FIELD: opening global file: pickup_cd.0000000005.data
(PID.TID 0000.0001)  MDS_READ_FIELD: opening global file: pickup_cd.0000000005.data
(PID.TID 0000.0001)  MDS_READ_FIELD: opening global file: pickup_cd.0000000005.data
(PID.TID 0000.0001)  MDS_READ_FIELD: opening global file: pickup_cd.0000000005.data
(PID.TID 0000.0001)  MDS_READ_FIELD: opening global file: pickup_cd.0000000005.data
(PID.TID 0000.0001)  MDS_READ_META: opening file: pickup_seaice.0000000005.meta
(PID.TID 0000.0001)  nRecords =  13 ; filePrec =  64 ; fileIter =         5
(PID.TID 0000.0001)     nDims =   2 , dims:
(PID.TID 0000.0001)    1:  20   1  20
(PID.TID 0000.0001)    2:  16   1  16
(PID.TID 0000.0001)     nFlds =   7 , nFl3D =   1 , fields:
(PID.TID 0000.0001)  >siTICES < >siAREA  < >siHEFF  < >siHSNOW < >siHSALT < >siUICE  < >siVICE  <
(PID.TID 0000.0001) missingVal=  1.00000000000000E+00 ; nTimRec =   1 , timeList:
(PID.TID 0000.0001)   1.800000000000E+04
(PID.TID 0000.0001) READ_MFLDS_3D_RL: read field: "siTICES ", #   1 in fldList, rec=   1
(PID.TID 0000.0001)  MDS_READ_FIELD: opening global file: pickup_seaice.0000000005.data
(PID.TID 0000.0001) READ_MFLDS_3D_RL: read field: "siAREA  ", #   2 in fldList, rec=   8
(PID.TID 0000.0001)  MDS_READ_FIELD: opening global file: pickup_seaice.0000000005.data
(PID.TID 0000.0001) READ_MFLDS_3D_RL: read field: "siHEFF  ", #   3 in fldList, rec=   9
(PID.TID 0000.0001)  MDS_READ_FIELD: opening global file: pickup_seaice.0000000005.data
(PID.TID 0000.0001) READ_MFLDS_3D_RL: read field: "siHSNOW ", #   4 in fldList, rec=  10
(PID.TID 0000.0001)  MDS_READ_FIELD: opening global file: pickup_seaice.0000000005.data
(PID.TID 0000.0001) READ_MFLDS_3D_RL: read field: "siHSALT ", #   5 in fldList, rec=  11
(PID.TID 0000.0001)  MDS_READ_FIELD: opening global file: pickup_seaice.0000000005.data
(PID.TID 0000.0001) READ_MFLDS_3D_RL: read field: "siUICE  ", #   6 in fldList, rec=  12
(PID.TID 0000.0001)  MDS_READ_FIELD: opening global file: pickup_seaice.0000000005.data
(PID.TID 0000.0001) READ_MFLDS_3D_RL: read field: "siVICE  ", #   7 in fldList, rec=  13
(PID.TID 0000.0001)  MDS_READ_FIELD: opening global file: pickup_seaice.0000000005.data
(PID.TID 0000.0001) READ_MFLDS_CHECK: - normal end ; reset MFLDS file-name: pickup_seaice.0000000005
(PID.TID 0000.0001) CTRL_INIT_REC: Getting record indices for xx_atemp
(PID.TID 0000.0001) CTRL_INIT_REC: Record indices for xx_atemp:
(PID.TID 0000.0001) CTRL_INIT_REC: startrec =          6, endrec =         11
(PID.TID 0000.0001)  MDS_READ_FIELD: opening global file: xx_atemp.0000000001.data
(PID.TID 0000.0001)  MDS_WRITE_FIELD: it,rec,kS,kL,kH=       1     1   1   1   1 file=xx_atemp.effective.0000000001
(PID.TID 0000.0001)  MDS_READ_FIELD: opening global file: xx_atemp.0000000001.data
(PID.TID 0000.0001)  MDS_WRITE_FIELD: it,rec,kS,kL,kH=       1     2   1   1   1 file=xx_atemp.effective.0000000001
(PID.TID 0000.0001)  MDS_READ_FIELD: opening global file: xx_atemp.0000000001.data
(PID.TID 0000.0001)  MDS_WRITE_FIELD: it,rec,kS,kL,kH=       1     3   1   1   1 file=xx_atemp.effective.0000000001
(PID.TID 0000.0001)  MDS_READ_FIELD: opening global file: xx_atemp.0000000001.data
(PID.TID 0000.0001)  MDS_WRITE_FIELD: it,rec,kS,kL,kH=       1     4   1   1   1 file=xx_atemp.effective.0000000001
(PID.TID 0000.0001)  MDS_READ_FIELD: opening global file: xx_atemp.0000000001.data
(PID.TID 0000.0001)  MDS_WRITE_FIELD: it,rec,kS,kL,kH=       1     5   1   1   1 file=xx_atemp.effective.0000000001
(PID.TID 0000.0001)  MDS_READ_FIELD: opening global file: xx_atemp.0000000001.data
(PID.TID 0000.0001)  MDS_WRITE_FIELD: it,rec,kS,kL,kH=       1     6   1   1   1 file=xx_atemp.effective.0000000001
(PID.TID 0000.0001)  MDS_READ_FIELD: opening global file: xx_atemp.effective.0000000001.data
(PID.TID 0000.0001)  MDS_READ_FIELD: opening global file: ones_64b.bin
(PID.TID 0000.0001)  MDS_WRITE_FIELD: it,rec,kS,kL,kH=       1     1   1   1   1 file=xx_atemp.effective.0000000001
(PID.TID 0000.0001)  MDS_READ_FIELD: opening global file: xx_atemp.effective.0000000001.data
(PID.TID 0000.0001)  MDS_READ_FIELD: opening global file: ones_64b.bin
(PID.TID 0000.0001)  MDS_WRITE_FIELD: it,rec,kS,kL,kH=       1     2   1   1   1 file=xx_atemp.effective.0000000001
(PID.TID 0000.0001)  MDS_READ_FIELD: opening global file: xx_atemp.effective.0000000001.data
(PID.TID 0000.0001)  MDS_READ_FIELD: opening global file: ones_64b.bin
(PID.TID 0000.0001)  MDS_WRITE_FIELD: it,rec,kS,kL,kH=       1     3   1   1   1 file=xx_atemp.effective.0000000001
(PID.TID 0000.0001)  MDS_READ_FIELD: opening global file: xx_atemp.effective.0000000001.data
(PID.TID 0000.0001)  MDS_READ_FIELD: opening global file: ones_64b.bin
(PID.TID 0000.0001)  MDS_WRITE_FIELD: it,rec,kS,kL,kH=       1     4   1   1   1 file=xx_atemp.effective.0000000001
(PID.TID 0000.0001)  MDS_READ_FIELD: opening global file: xx_atemp.effective.0000000001.data
(PID.TID 0000.0001)  MDS_READ_FIELD: opening global file: ones_64b.bin
(PID.TID 0000.0001)  MDS_WRITE_FIELD: it,rec,kS,kL,kH=       1     5   1   1   1 file=xx_atemp.effective.0000000001
(PID.TID 0000.0001)  MDS_READ_FIELD: opening global file: xx_atemp.effective.0000000001.data
(PID.TID 0000.0001)  MDS_READ_FIELD: opening global file: ones_64b.bin
(PID.TID 0000.0001)  MDS_WRITE_FIELD: it,rec,kS,kL,kH=       1     6   1   1   1 file=xx_atemp.effective.0000000001
(PID.TID 0000.0001) // =======================================================
(PID.TID 0000.0001) // Model current state
(PID.TID 0000.0001) // =======================================================
(PID.TID 0000.0001) 
(PID.TID 0000.0001)  MDS_WRITE_FIELD: it,rec,kS,kL,kH=       1     1   1   1   1 file=m_sst_step.0000000001
(PID.TID 0000.0001)  MDS_READ_FIELD: opening global file: xx_atemp.effective.0000000001.data
(PID.TID 0000.0001)  MDS_READ_FIELD: opening global file: xx_atemp.effective.0000000001.data
(PID.TID 0000.0001) EXF_SET_FLD: processing field "climsss",  file: SSS_monthly.labsea1979
(PID.TID 0000.0001) EXF_SET_FLD:   myIter, count0, count1:         5      1      2
(PID.TID 0000.0001) EXF_SET_FLD:   first, changed, fac:   T   F    0.49316939890710387
(PID.TID 0000.0001) EXF_SET_FLD: field "climsss", it=         5, loading rec=     1
(PID.TID 0000.0001) EXF_SET_FLD:   from file: "SSS_monthly.labsea1979"
(PID.TID 0000.0001)  MDS_READ_FIELD: opening global file: SSS_monthly.labsea1979
(PID.TID 0000.0001) EXF_SET_FLD: field "climsss", it=         5, loading rec=     2
(PID.TID 0000.0001) EXF_SET_FLD:   from file: "SSS_monthly.labsea1979"
(PID.TID 0000.0001)  MDS_READ_FIELD: opening global file: SSS_monthly.labsea1979
(PID.TID 0000.0001) EXF_SET_FLD: processing field "uwind",  file: u10m.labsea1979
(PID.TID 0000.0001) EXF_SET_FLD:   myIter, count0, count1:         5      1      2
(PID.TID 0000.0001) EXF_SET_FLD:   first, changed, fac:   T   F    0.49316939890710387
(PID.TID 0000.0001) EXF_SET_FLD: field "uwind", it=         5, loading rec=     1
(PID.TID 0000.0001) EXF_SET_FLD:   from file: "u10m.labsea1979"
(PID.TID 0000.0001)  MDS_READ_FIELD: opening global file: u10m.labsea1979
(PID.TID 0000.0001) EXF_SET_FLD: field "uwind", it=         5, loading rec=     2
(PID.TID 0000.0001) EXF_SET_FLD:   from file: "u10m.labsea1979"
(PID.TID 0000.0001)  MDS_READ_FIELD: opening global file: u10m.labsea1979
(PID.TID 0000.0001) EXF_SET_FLD: processing field "vwind",  file: v10m.labsea1979
(PID.TID 0000.0001) EXF_SET_FLD:   myIter, count0, count1:         5      1      2
(PID.TID 0000.0001) EXF_SET_FLD:   first, changed, fac:   T   F    0.49316939890710387
(PID.TID 0000.0001) EXF_SET_FLD: field "vwind", it=         5, loading rec=     1
(PID.TID 0000.0001) EXF_SET_FLD:   from file: "v10m.labsea1979"
(PID.TID 0000.0001)  MDS_READ_FIELD: opening global file: v10m.labsea1979
(PID.TID 0000.0001) EXF_SET_FLD: field "vwind", it=         5, loading rec=     2
(PID.TID 0000.0001) EXF_SET_FLD:   from file: "v10m.labsea1979"
(PID.TID 0000.0001)  MDS_READ_FIELD: opening global file: v10m.labsea1979
(PID.TID 0000.0001) EXF_SET_FLD: processing field "atemp",  file: tair.labsea1979
(PID.TID 0000.0001) EXF_SET_FLD:   myIter, count0, count1:         5      1      2
(PID.TID 0000.0001) EXF_SET_FLD:   first, changed, fac:   T   F    0.49316939890710387
(PID.TID 0000.0001) EXF_SET_FLD: field "atemp", it=         5, loading rec=     1
(PID.TID 0000.0001) EXF_SET_FLD:   from file: "tair.labsea1979"
(PID.TID 0000.0001)  MDS_READ_FIELD: opening global file: tair.labsea1979
(PID.TID 0000.0001) EXF_SET_FLD: field "atemp", it=         5, loading rec=     2
(PID.TID 0000.0001) EXF_SET_FLD:   from file: "tair.labsea1979"
(PID.TID 0000.0001)  MDS_READ_FIELD: opening global file: tair.labsea1979
(PID.TID 0000.0001) EXF_SET_FLD: processing field "aqh",  file: qa.labsea1979
(PID.TID 0000.0001) EXF_SET_FLD:   myIter, count0, count1:         5      1      2
(PID.TID 0000.0001) EXF_SET_FLD:   first, changed, fac:   T   F    0.49316939890710387
(PID.TID 0000.0001) EXF_SET_FLD: field "aqh", it=         5, loading rec=     1
(PID.TID 0000.0001) EXF_SET_FLD:   from file: "qa.labsea1979"
(PID.TID 0000.0001)  MDS_READ_FIELD: opening global file: qa.labsea1979
(PID.TID 0000.0001) EXF_SET_FLD: field "aqh", it=         5, loading rec=     2
(PID.TID 0000.0001) EXF_SET_FLD:   from file: "qa.labsea1979"
(PID.TID 0000.0001)  MDS_READ_FIELD: opening global file: qa.labsea1979
(PID.TID 0000.0001) EXF_SET_FLD: processing field "precip",  file: prate.labsea1979
(PID.TID 0000.0001) EXF_SET_FLD:   myIter, count0, count1:         5      1      2
(PID.TID 0000.0001) EXF_SET_FLD:   first, changed, fac:   T   F    0.49316939890710387
(PID.TID 0000.0001) EXF_SET_FLD: field "precip", it=         5, loading rec=     1
(PID.TID 0000.0001) EXF_SET_FLD:   from file: "prate.labsea1979"
(PID.TID 0000.0001)  MDS_READ_FIELD: opening global file: prate.labsea1979
(PID.TID 0000.0001) EXF_SET_FLD: field "precip", it=         5, loading rec=     2
(PID.TID 0000.0001) EXF_SET_FLD:   from file: "prate.labsea1979"
(PID.TID 0000.0001)  MDS_READ_FIELD: opening global file: prate.labsea1979
(PID.TID 0000.0001) EXF_SET_FLD: processing field "swdown",  file: fsh.labsea1979
(PID.TID 0000.0001) EXF_SET_FLD:   myIter, count0, count1:         5      1      2
(PID.TID 0000.0001) EXF_SET_FLD:   first, changed, fac:   T   F    0.49316939890710387
(PID.TID 0000.0001) EXF_SET_FLD: field "swdown", it=         5, loading rec=     1
(PID.TID 0000.0001) EXF_SET_FLD:   from file: "fsh.labsea1979"
(PID.TID 0000.0001)  MDS_READ_FIELD: opening global file: fsh.labsea1979
(PID.TID 0000.0001) EXF_SET_FLD: field "swdown", it=         5, loading rec=     2
(PID.TID 0000.0001) EXF_SET_FLD:   from file: "fsh.labsea1979"
(PID.TID 0000.0001)  MDS_READ_FIELD: opening global file: fsh.labsea1979
(PID.TID 0000.0001) EXF_SET_FLD: processing field "lwdown",  file: flo.labsea1979
(PID.TID 0000.0001) EXF_SET_FLD:   myIter, count0, count1:         5      1      2
(PID.TID 0000.0001) EXF_SET_FLD:   first, changed, fac:   T   F    0.49316939890710387
(PID.TID 0000.0001) EXF_SET_FLD: field "lwdown", it=         5, loading rec=     1
(PID.TID 0000.0001) EXF_SET_FLD:   from file: "flo.labsea1979"
(PID.TID 0000.0001)  MDS_READ_FIELD: opening global file: flo.labsea1979
(PID.TID 0000.0001) EXF_SET_FLD: field "lwdown", it=         5, loading rec=     2
(PID.TID 0000.0001) EXF_SET_FLD:   from file: "flo.labsea1979"
(PID.TID 0000.0001)  MDS_READ_FIELD: opening global file: flo.labsea1979
DEBUG_STATS_RL: Uice pre  iter (SEAICE_LSR  1)  min= -9.02121933428159E-03
DEBUG_STATS_RL: Uice pre  iter (SEAICE_LSR  1)  max=  2.19445684647109E-01
DEBUG_STATS_RL: Uice pre  iter (SEAICE_LSR  1) mean=  6.96639305502532E-02
DEBUG_STATS_RL: Uice pre  iter (SEAICE_LSR  1) S.D.=  7.25590715280224E-02
DEBUG_STATS_RL: Vice pre  iter (SEAICE_LSR  1)  min= -1.73112057819563E-01
DEBUG_STATS_RL: Vice pre  iter (SEAICE_LSR  1)  max=  1.05174802576008E-01
DEBUG_STATS_RL: Vice pre  iter (SEAICE_LSR  1) mean= -3.44957645455127E-02
DEBUG_STATS_RL: Vice pre  iter (SEAICE_LSR  1) S.D.=  5.17027322842165E-02
DEBUG_STATS_RL: Uice pre  iter (SEAICE_LSR  2)  min= -9.93295031152210E-03
DEBUG_STATS_RL: Uice pre  iter (SEAICE_LSR  2)  max=  2.37649472779152E-01
DEBUG_STATS_RL: Uice pre  iter (SEAICE_LSR  2) mean=  7.08960993522900E-02
DEBUG_STATS_RL: Uice pre  iter (SEAICE_LSR  2) S.D.=  7.51814019583860E-02
DEBUG_STATS_RL: Vice pre  iter (SEAICE_LSR  2)  min= -1.73458139241626E-01
DEBUG_STATS_RL: Vice pre  iter (SEAICE_LSR  2)  max=  1.02503634704982E-01
DEBUG_STATS_RL: Vice pre  iter (SEAICE_LSR  2) mean= -3.89801386768760E-02
DEBUG_STATS_RL: Vice pre  iter (SEAICE_LSR  2) S.D.=  5.44920749395038E-02
DEBUG_STATS_RL:                EtaN (DYNAMICS)  min= -1.29709672821213E-01
DEBUG_STATS_RL:                EtaN (DYNAMICS)  max=  3.25626876398477E-01
DEBUG_STATS_RL:                EtaN (DYNAMICS) mean= -3.00841690122536E-03
DEBUG_STATS_RL:                EtaN (DYNAMICS) S.D.=  7.54180814594036E-02
DEBUG_STATS_RL:                Uvel (DYNAMICS)  min= -3.64296443204224E-02
DEBUG_STATS_RL:                Uvel (DYNAMICS)  max=  8.91662112566489E-02
DEBUG_STATS_RL:                Uvel (DYNAMICS) mean=  5.18186102505262E-03
DEBUG_STATS_RL:                Uvel (DYNAMICS) S.D.=  1.36791834404111E-02
DEBUG_STATS_RL:                Vvel (DYNAMICS)  min= -8.48427067731397E-02
DEBUG_STATS_RL:                Vvel (DYNAMICS)  max=  7.15709637633448E-02
DEBUG_STATS_RL:                Vvel (DYNAMICS) mean= -6.25663991250223E-04
DEBUG_STATS_RL:                Vvel (DYNAMICS) S.D.=  1.65568599029307E-02
DEBUG_STATS_RL:                Wvel (DYNAMICS)  min= -2.02998023749463E-04
DEBUG_STATS_RL:                Wvel (DYNAMICS)  max=  3.07634744219620E-04
DEBUG_STATS_RL:                Wvel (DYNAMICS) mean= -2.14485636605179E-07
DEBUG_STATS_RL:                Wvel (DYNAMICS) S.D.=  2.56514188295233E-05
DEBUG_STATS_RL:               Theta (DYNAMICS)  min= -1.95891909892377E+00
DEBUG_STATS_RL:               Theta (DYNAMICS)  max=  1.32575107273067E+01
DEBUG_STATS_RL:               Theta (DYNAMICS) mean=  2.41560973729717E+00
DEBUG_STATS_RL:               Theta (DYNAMICS) S.D.=  2.57506629522921E+00
DEBUG_STATS_RL:                Salt (DYNAMICS)  min=  2.76241835718781E+01
DEBUG_STATS_RL:                Salt (DYNAMICS)  max=  3.54512322319690E+01
DEBUG_STATS_RL:                Salt (DYNAMICS) mean=  3.39367610972827E+01
DEBUG_STATS_RL:                Salt (DYNAMICS) S.D.=  1.15400523729775E+00
DEBUG_STATS_RL:                  Gu (DYNAMICS)  min= -3.40661284878781E-02
DEBUG_STATS_RL:                  Gu (DYNAMICS)  max=  1.09592409505601E-01
DEBUG_STATS_RL:                  Gu (DYNAMICS) mean=  3.43340148231612E-03
DEBUG_STATS_RL:                  Gu (DYNAMICS) S.D.=  1.52106643070904E-02
DEBUG_STATS_RL:                  Gv (DYNAMICS)  min= -1.19743996000496E-01
DEBUG_STATS_RL:                  Gv (DYNAMICS)  max=  5.31755908727337E-02
DEBUG_STATS_RL:                  Gv (DYNAMICS) mean= -6.43607759844673E-03
DEBUG_STATS_RL:                  Gv (DYNAMICS) S.D.=  1.74595586593132E-02
DEBUG_STATS_RL:               GuNm1 (DYNAMICS)  min= -2.94347299884301E-07
DEBUG_STATS_RL:               GuNm1 (DYNAMICS)  max=  1.78770581560375E-07
DEBUG_STATS_RL:               GuNm1 (DYNAMICS) mean= -3.06311171945198E-09
DEBUG_STATS_RL:               GuNm1 (DYNAMICS) S.D.=  4.19614199163276E-08
DEBUG_STATS_RL:               GvNm1 (DYNAMICS)  min= -1.82273635415880E-07
DEBUG_STATS_RL:               GvNm1 (DYNAMICS)  max=  1.24273330978528E-07
DEBUG_STATS_RL:               GvNm1 (DYNAMICS) mean= -1.05360009952046E-09
DEBUG_STATS_RL:               GvNm1 (DYNAMICS) S.D.=  3.58773704868012E-08
DEBUG_STATS_RL:               GtNm1 (DYNAMICS)  min=  0.00000000000000E+00
DEBUG_STATS_RL:               GtNm1 (DYNAMICS)  max=  0.00000000000000E+00
DEBUG_STATS_RL:               GtNm1 (DYNAMICS) mean=  0.00000000000000E+00
DEBUG_STATS_RL:               GtNm1 (DYNAMICS) S.D.=  0.00000000000000E+00
DEBUG_STATS_RL:               GsNm1 (DYNAMICS)  min=  0.00000000000000E+00
DEBUG_STATS_RL:               GsNm1 (DYNAMICS)  max=  0.00000000000000E+00
DEBUG_STATS_RL:               GsNm1 (DYNAMICS) mean=  0.00000000000000E+00
DEBUG_STATS_RL:               GsNm1 (DYNAMICS) S.D.=  0.00000000000000E+00
(PID.TID 0000.0001) SOLVE_FOR_PRESSURE: putPmEinXvector =    F
DEBUG_STATS_RL:    cg2d_b (SOLVE_FOR_PRESSURE)  min= -7.45833771571459E+03
DEBUG_STATS_RL:    cg2d_b (SOLVE_FOR_PRESSURE)  max=  2.17494903027769E+03
DEBUG_STATS_RL:    cg2d_b (SOLVE_FOR_PRESSURE) mean=  4.18935997004155E-13
DEBUG_STATS_RL:    cg2d_b (SOLVE_FOR_PRESSURE) S.D.=  9.06377010650268E+02
 cg2d: Sum(rhs),rhsMax =   8.29197821516914E-15  1.20041496847834E+00
DEBUG_STATS_RL:    cg2d_x (SOLVE_FOR_PRESSURE)  min= -1.23196163368130E+00
DEBUG_STATS_RL:    cg2d_x (SOLVE_FOR_PRESSURE)  max=  3.23727429689848E+00
DEBUG_STATS_RL:    cg2d_x (SOLVE_FOR_PRESSURE) mean= -3.45194761148230E-02
DEBUG_STATS_RL:    cg2d_x (SOLVE_FOR_PRESSURE) S.D.=  7.10912240392561E-01
DEBUG_STATS_RL:          Uvel (THERMODYNAMICS)  min= -3.59096386964102E-02
DEBUG_STATS_RL:          Uvel (THERMODYNAMICS)  max=  1.01288605318195E-01
DEBUG_STATS_RL:          Uvel (THERMODYNAMICS) mean=  5.06442107691443E-03
DEBUG_STATS_RL:          Uvel (THERMODYNAMICS) S.D.=  1.40087544095653E-02
DEBUG_STATS_RL:          Vvel (THERMODYNAMICS)  min= -1.10756263988798E-01
DEBUG_STATS_RL:          Vvel (THERMODYNAMICS)  max=  7.07208418107748E-02
DEBUG_STATS_RL:          Vvel (THERMODYNAMICS) mean= -2.17557054828444E-03
DEBUG_STATS_RL:          Vvel (THERMODYNAMICS) S.D.=  1.80912833066385E-02
DEBUG_STATS_RL:          Wvel (THERMODYNAMICS)  min= -2.43811460414301E-04
DEBUG_STATS_RL:          Wvel (THERMODYNAMICS)  max=  3.28816353261790E-04
DEBUG_STATS_RL:          Wvel (THERMODYNAMICS) mean= -1.37923543342930E-07
DEBUG_STATS_RL:          Wvel (THERMODYNAMICS) S.D.=  2.75149300864468E-05
DEBUG_STATS_RL:         Theta (THERMODYNAMICS)  min= -1.96015217723737E+00
DEBUG_STATS_RL:         Theta (THERMODYNAMICS)  max=  1.32512671183370E+01
DEBUG_STATS_RL:         Theta (THERMODYNAMICS) mean=  2.41531606071968E+00
DEBUG_STATS_RL:         Theta (THERMODYNAMICS) S.D.=  2.57483151675911E+00
DEBUG_STATS_RL:          Salt (THERMODYNAMICS)  min=  2.76290307531745E+01
DEBUG_STATS_RL:          Salt (THERMODYNAMICS)  max=  3.54512307060718E+01
DEBUG_STATS_RL:          Salt (THERMODYNAMICS) mean=  3.39367446276238E+01
DEBUG_STATS_RL:          Salt (THERMODYNAMICS) S.D.=  1.15382313156805E+00
DEBUG_STATS_RL:         GtNm1 (THERMODYNAMICS)  min=  0.00000000000000E+00
DEBUG_STATS_RL:         GtNm1 (THERMODYNAMICS)  max=  0.00000000000000E+00
DEBUG_STATS_RL:         GtNm1 (THERMODYNAMICS) mean=  0.00000000000000E+00
DEBUG_STATS_RL:         GtNm1 (THERMODYNAMICS) S.D.=  0.00000000000000E+00
DEBUG_STATS_RL:         GsNm1 (THERMODYNAMICS)  min=  0.00000000000000E+00
DEBUG_STATS_RL:         GsNm1 (THERMODYNAMICS)  max=  0.00000000000000E+00
DEBUG_STATS_RL:         GsNm1 (THERMODYNAMICS) mean=  0.00000000000000E+00
DEBUG_STATS_RL:         GsNm1 (THERMODYNAMICS) S.D.=  0.00000000000000E+00
(PID.TID 0000.0001)  MDS_WRITE_FIELD: it,rec,kS,kL,kH=       1     2   1   1   1 file=m_sst_step.0000000001
(PID.TID 0000.0001)  MDS_READ_FIELD: opening global file: xx_atemp.effective.0000000001.data
(PID.TID 0000.0001) EXF_SET_FLD: processing field "climsss",  file: SSS_monthly.labsea1979
(PID.TID 0000.0001) EXF_SET_FLD:   myIter, count0, count1:         6      1      2
(PID.TID 0000.0001) EXF_SET_FLD:   first, changed, fac:   F   F    0.49180327868852458
(PID.TID 0000.0001) EXF_SET_FLD: processing field "uwind",  file: u10m.labsea1979
(PID.TID 0000.0001) EXF_SET_FLD:   myIter, count0, count1:         6      1      2
(PID.TID 0000.0001) EXF_SET_FLD:   first, changed, fac:   F   F    0.49180327868852458
(PID.TID 0000.0001) EXF_SET_FLD: processing field "vwind",  file: v10m.labsea1979
(PID.TID 0000.0001) EXF_SET_FLD:   myIter, count0, count1:         6      1      2
(PID.TID 0000.0001) EXF_SET_FLD:   first, changed, fac:   F   F    0.49180327868852458
(PID.TID 0000.0001) EXF_SET_FLD: processing field "atemp",  file: tair.labsea1979
(PID.TID 0000.0001) EXF_SET_FLD:   myIter, count0, count1:         6      1      2
(PID.TID 0000.0001) EXF_SET_FLD:   first, changed, fac:   F   F    0.49180327868852458
(PID.TID 0000.0001) EXF_SET_FLD: processing field "aqh",  file: qa.labsea1979
(PID.TID 0000.0001) EXF_SET_FLD:   myIter, count0, count1:         6      1      2
(PID.TID 0000.0001) EXF_SET_FLD:   first, changed, fac:   F   F    0.49180327868852458
(PID.TID 0000.0001) EXF_SET_FLD: processing field "precip",  file: prate.labsea1979
(PID.TID 0000.0001) EXF_SET_FLD:   myIter, count0, count1:         6      1      2
(PID.TID 0000.0001) EXF_SET_FLD:   first, changed, fac:   F   F    0.49180327868852458
(PID.TID 0000.0001) EXF_SET_FLD: processing field "swdown",  file: fsh.labsea1979
(PID.TID 0000.0001) EXF_SET_FLD:   myIter, count0, count1:         6      1      2
(PID.TID 0000.0001) EXF_SET_FLD:   first, changed, fac:   F   F    0.49180327868852458
(PID.TID 0000.0001) EXF_SET_FLD: processing field "lwdown",  file: flo.labsea1979
(PID.TID 0000.0001) EXF_SET_FLD:   myIter, count0, count1:         6      1      2
(PID.TID 0000.0001) EXF_SET_FLD:   first, changed, fac:   F   F    0.49180327868852458
DEBUG_STATS_RL: Uice pre  iter (SEAICE_LSR  1)  min= -1.19106759196614E-02
DEBUG_STATS_RL: Uice pre  iter (SEAICE_LSR  1)  max=  2.40859973799500E-01
DEBUG_STATS_RL: Uice pre  iter (SEAICE_LSR  1) mean=  7.02597534860948E-02
DEBUG_STATS_RL: Uice pre  iter (SEAICE_LSR  1) S.D.=  7.57773428259753E-02
DEBUG_STATS_RL: Vice pre  iter (SEAICE_LSR  1)  min= -1.74132342678207E-01
DEBUG_STATS_RL: Vice pre  iter (SEAICE_LSR  1)  max=  9.66358613081399E-02
DEBUG_STATS_RL: Vice pre  iter (SEAICE_LSR  1) mean= -4.28491368242810E-02
DEBUG_STATS_RL: Vice pre  iter (SEAICE_LSR  1) S.D.=  5.63763392291550E-02
DEBUG_STATS_RL: Uice pre  iter (SEAICE_LSR  2)  min= -1.30564509125757E-02
DEBUG_STATS_RL: Uice pre  iter (SEAICE_LSR  2)  max=  2.47901039964918E-01
DEBUG_STATS_RL: Uice pre  iter (SEAICE_LSR  2) mean=  6.80717062410296E-02
DEBUG_STATS_RL: Uice pre  iter (SEAICE_LSR  2) S.D.=  7.48548542542582E-02
DEBUG_STATS_RL: Vice pre  iter (SEAICE_LSR  2)  min= -1.68314830999124E-01
DEBUG_STATS_RL: Vice pre  iter (SEAICE_LSR  2)  max=  8.87290074915900E-02
DEBUG_STATS_RL: Vice pre  iter (SEAICE_LSR  2) mean= -4.61137817409455E-02
DEBUG_STATS_RL: Vice pre  iter (SEAICE_LSR  2) S.D.=  5.74118961796309E-02
DEBUG_STATS_RL:                EtaN (DYNAMICS)  min= -1.25510578434462E-01
DEBUG_STATS_RL:                EtaN (DYNAMICS)  max=  3.29809109672203E-01
DEBUG_STATS_RL:                EtaN (DYNAMICS) mean= -3.51679735470302E-03
DEBUG_STATS_RL:                EtaN (DYNAMICS) S.D.=  7.24267737471536E-02
DEBUG_STATS_RL:                Uvel (DYNAMICS)  min= -3.59096386964102E-02
DEBUG_STATS_RL:                Uvel (DYNAMICS)  max=  1.01288605318195E-01
DEBUG_STATS_RL:                Uvel (DYNAMICS) mean=  5.06442107691443E-03
DEBUG_STATS_RL:                Uvel (DYNAMICS) S.D.=  1.40087544095653E-02
DEBUG_STATS_RL:                Vvel (DYNAMICS)  min= -1.10756263988798E-01
DEBUG_STATS_RL:                Vvel (DYNAMICS)  max=  7.07208418107748E-02
DEBUG_STATS_RL:                Vvel (DYNAMICS) mean= -2.17557054828444E-03
DEBUG_STATS_RL:                Vvel (DYNAMICS) S.D.=  1.80912833066385E-02
DEBUG_STATS_RL:                Wvel (DYNAMICS)  min= -2.43811460414301E-04
DEBUG_STATS_RL:                Wvel (DYNAMICS)  max=  3.28816353261790E-04
DEBUG_STATS_RL:                Wvel (DYNAMICS) mean= -1.37923543342930E-07
DEBUG_STATS_RL:                Wvel (DYNAMICS) S.D.=  2.75149300864468E-05
DEBUG_STATS_RL:               Theta (DYNAMICS)  min= -1.96015217723737E+00
DEBUG_STATS_RL:               Theta (DYNAMICS)  max=  1.32512671183370E+01
DEBUG_STATS_RL:               Theta (DYNAMICS) mean=  2.41531606071968E+00
DEBUG_STATS_RL:               Theta (DYNAMICS) S.D.=  2.57483151675911E+00
DEBUG_STATS_RL:                Salt (DYNAMICS)  min=  2.76290307531745E+01
DEBUG_STATS_RL:                Salt (DYNAMICS)  max=  3.54512307060718E+01
DEBUG_STATS_RL:                Salt (DYNAMICS) mean=  3.39367446276238E+01
DEBUG_STATS_RL:                Salt (DYNAMICS) S.D.=  1.15382313156805E+00
DEBUG_STATS_RL:                  Gu (DYNAMICS)  min= -4.45840116890899E-02
DEBUG_STATS_RL:                  Gu (DYNAMICS)  max=  1.13252404039500E-01
DEBUG_STATS_RL:                  Gu (DYNAMICS) mean=  3.02808241161229E-03
DEBUG_STATS_RL:                  Gu (DYNAMICS) S.D.=  1.59063121238893E-02
DEBUG_STATS_RL:                  Gv (DYNAMICS)  min= -1.34630447324912E-01
DEBUG_STATS_RL:                  Gv (DYNAMICS)  max=  4.81174890382835E-02
DEBUG_STATS_RL:                  Gv (DYNAMICS) mean= -7.41639241987065E-03
DEBUG_STATS_RL:                  Gv (DYNAMICS) S.D.=  1.85638365104700E-02
DEBUG_STATS_RL:               GuNm1 (DYNAMICS)  min= -3.33271036892904E-07
DEBUG_STATS_RL:               GuNm1 (DYNAMICS)  max=  1.87479663955270E-07
DEBUG_STATS_RL:               GuNm1 (DYNAMICS) mean= -3.31200046769952E-09
DEBUG_STATS_RL:               GuNm1 (DYNAMICS) S.D.=  4.08419141881971E-08
DEBUG_STATS_RL:               GvNm1 (DYNAMICS)  min= -2.04912919624491E-07
DEBUG_STATS_RL:               GvNm1 (DYNAMICS)  max=  1.56710147054438E-07
DEBUG_STATS_RL:               GvNm1 (DYNAMICS) mean= -8.96938696731291E-10
DEBUG_STATS_RL:               GvNm1 (DYNAMICS) S.D.=  3.95873164870957E-08
DEBUG_STATS_RL:               GtNm1 (DYNAMICS)  min=  0.00000000000000E+00
DEBUG_STATS_RL:               GtNm1 (DYNAMICS)  max=  0.00000000000000E+00
DEBUG_STATS_RL:               GtNm1 (DYNAMICS) mean=  0.00000000000000E+00
DEBUG_STATS_RL:               GtNm1 (DYNAMICS) S.D.=  0.00000000000000E+00
DEBUG_STATS_RL:               GsNm1 (DYNAMICS)  min=  0.00000000000000E+00
DEBUG_STATS_RL:               GsNm1 (DYNAMICS)  max=  0.00000000000000E+00
DEBUG_STATS_RL:               GsNm1 (DYNAMICS) mean=  0.00000000000000E+00
DEBUG_STATS_RL:               GsNm1 (DYNAMICS) S.D.=  0.00000000000000E+00
DEBUG_STATS_RL:    cg2d_b (SOLVE_FOR_PRESSURE)  min= -7.43169656861245E+03
DEBUG_STATS_RL:    cg2d_b (SOLVE_FOR_PRESSURE)  max=  2.17598296942634E+03
DEBUG_STATS_RL:    cg2d_b (SOLVE_FOR_PRESSURE) mean=  6.96331881044898E-13
DEBUG_STATS_RL:    cg2d_b (SOLVE_FOR_PRESSURE) S.D.=  9.02750100849735E+02
 cg2d: Sum(rhs),rhsMax =   1.41067713066434E-14  1.19612709187932E+00
DEBUG_STATS_RL:    cg2d_x (SOLVE_FOR_PRESSURE)  min= -1.18794061890904E+00
DEBUG_STATS_RL:    cg2d_x (SOLVE_FOR_PRESSURE)  max=  3.24511049575726E+00
DEBUG_STATS_RL:    cg2d_x (SOLVE_FOR_PRESSURE) mean= -3.88654400025836E-02
DEBUG_STATS_RL:    cg2d_x (SOLVE_FOR_PRESSURE) S.D.=  6.81167535252279E-01
DEBUG_STATS_RL:          Uvel (THERMODYNAMICS)  min= -3.57601727936033E-02
DEBUG_STATS_RL:          Uvel (THERMODYNAMICS)  max=  1.04775938290593E-01
DEBUG_STATS_RL:          Uvel (THERMODYNAMICS) mean=  4.39725630125182E-03
DEBUG_STATS_RL:          Uvel (THERMODYNAMICS) S.D.=  1.39028540310335E-02
DEBUG_STATS_RL:          Vvel (THERMODYNAMICS)  min= -1.27584762387762E-01
DEBUG_STATS_RL:          Vvel (THERMODYNAMICS)  max=  6.50083276838834E-02
DEBUG_STATS_RL:          Vvel (THERMODYNAMICS) mean= -3.36887217582008E-03
DEBUG_STATS_RL:          Vvel (THERMODYNAMICS) S.D.=  1.85890275650197E-02
DEBUG_STATS_RL:          Wvel (THERMODYNAMICS)  min= -2.67954696014334E-04
DEBUG_STATS_RL:          Wvel (THERMODYNAMICS)  max=  3.29804232734301E-04
DEBUG_STATS_RL:          Wvel (THERMODYNAMICS) mean= -4.85616750767614E-08
DEBUG_STATS_RL:          Wvel (THERMODYNAMICS) S.D.=  2.84164537902804E-05
DEBUG_STATS_RL:         Theta (THERMODYNAMICS)  min= -1.95963016104374E+00
DEBUG_STATS_RL:         Theta (THERMODYNAMICS)  max=  1.32396343409662E+01
DEBUG_STATS_RL:         Theta (THERMODYNAMICS) mean=  2.41506584132490E+00
DEBUG_STATS_RL:         Theta (THERMODYNAMICS) S.D.=  2.57443936967394E+00
DEBUG_STATS_RL:          Salt (THERMODYNAMICS)  min=  2.76338867569799E+01
DEBUG_STATS_RL:          Salt (THERMODYNAMICS)  max=  3.54511617149686E+01
DEBUG_STATS_RL:          Salt (THERMODYNAMICS) mean=  3.39367496241626E+01
DEBUG_STATS_RL:          Salt (THERMODYNAMICS) S.D.=  1.15359229307638E+00
DEBUG_STATS_RL:         GtNm1 (THERMODYNAMICS)  min=  0.00000000000000E+00
DEBUG_STATS_RL:         GtNm1 (THERMODYNAMICS)  max=  0.00000000000000E+00
DEBUG_STATS_RL:         GtNm1 (THERMODYNAMICS) mean=  0.00000000000000E+00
DEBUG_STATS_RL:         GtNm1 (THERMODYNAMICS) S.D.=  0.00000000000000E+00
DEBUG_STATS_RL:         GsNm1 (THERMODYNAMICS)  min=  0.00000000000000E+00
DEBUG_STATS_RL:         GsNm1 (THERMODYNAMICS)  max=  0.00000000000000E+00
DEBUG_STATS_RL:         GsNm1 (THERMODYNAMICS) mean=  0.00000000000000E+00
DEBUG_STATS_RL:         GsNm1 (THERMODYNAMICS) S.D.=  0.00000000000000E+00
(PID.TID 0000.0001)  MDS_WRITE_FIELD: it,rec,kS,kL,kH=       1     3   1   1   1 file=m_sst_step.0000000001
(PID.TID 0000.0001)  MDS_READ_FIELD: opening global file: xx_atemp.effective.0000000001.data
(PID.TID 0000.0001) EXF_SET_FLD: processing field "climsss",  file: SSS_monthly.labsea1979
(PID.TID 0000.0001) EXF_SET_FLD:   myIter, count0, count1:         7      1      2
(PID.TID 0000.0001) EXF_SET_FLD:   first, changed, fac:   F   F    0.49043715846994540
(PID.TID 0000.0001) EXF_SET_FLD: processing field "uwind",  file: u10m.labsea1979
(PID.TID 0000.0001) EXF_SET_FLD:   myIter, count0, count1:         7      1      2
(PID.TID 0000.0001) EXF_SET_FLD:   first, changed, fac:   F   F    0.49043715846994540
(PID.TID 0000.0001) EXF_SET_FLD: processing field "vwind",  file: v10m.labsea1979
(PID.TID 0000.0001) EXF_SET_FLD:   myIter, count0, count1:         7      1      2
(PID.TID 0000.0001) EXF_SET_FLD:   first, changed, fac:   F   F    0.49043715846994540
(PID.TID 0000.0001) EXF_SET_FLD: processing field "atemp",  file: tair.labsea1979
(PID.TID 0000.0001) EXF_SET_FLD:   myIter, count0, count1:         7      1      2
(PID.TID 0000.0001) EXF_SET_FLD:   first, changed, fac:   F   F    0.49043715846994540
(PID.TID 0000.0001) EXF_SET_FLD: processing field "aqh",  file: qa.labsea1979
(PID.TID 0000.0001) EXF_SET_FLD:   myIter, count0, count1:         7      1      2
(PID.TID 0000.0001) EXF_SET_FLD:   first, changed, fac:   F   F    0.49043715846994540
(PID.TID 0000.0001) EXF_SET_FLD: processing field "precip",  file: prate.labsea1979
(PID.TID 0000.0001) EXF_SET_FLD:   myIter, count0, count1:         7      1      2
(PID.TID 0000.0001) EXF_SET_FLD:   first, changed, fac:   F   F    0.49043715846994540
(PID.TID 0000.0001) EXF_SET_FLD: processing field "swdown",  file: fsh.labsea1979
(PID.TID 0000.0001) EXF_SET_FLD:   myIter, count0, count1:         7      1      2
(PID.TID 0000.0001) EXF_SET_FLD:   first, changed, fac:   F   F    0.49043715846994540
(PID.TID 0000.0001) EXF_SET_FLD: processing field "lwdown",  file: flo.labsea1979
(PID.TID 0000.0001) EXF_SET_FLD:   myIter, count0, count1:         7      1      2
(PID.TID 0000.0001) EXF_SET_FLD:   first, changed, fac:   F   F    0.49043715846994540
DEBUG_STATS_RL: Uice pre  iter (SEAICE_LSR  1)  min= -1.54549194525866E-02
DEBUG_STATS_RL: Uice pre  iter (SEAICE_LSR  1)  max=  2.53524286292195E-01
DEBUG_STATS_RL: Uice pre  iter (SEAICE_LSR  1) mean=  6.68799365320119E-02
DEBUG_STATS_RL: Uice pre  iter (SEAICE_LSR  1) S.D.=  7.54478852962580E-02
DEBUG_STATS_RL: Vice pre  iter (SEAICE_LSR  1)  min= -1.68373183021268E-01
DEBUG_STATS_RL: Vice pre  iter (SEAICE_LSR  1)  max=  8.10859368452303E-02
DEBUG_STATS_RL: Vice pre  iter (SEAICE_LSR  1) mean= -4.94905385200998E-02
DEBUG_STATS_RL: Vice pre  iter (SEAICE_LSR  1) S.D.=  5.89447951203408E-02
DEBUG_STATS_RL: Uice pre  iter (SEAICE_LSR  2)  min= -1.68104910559763E-02
DEBUG_STATS_RL: Uice pre  iter (SEAICE_LSR  2)  max=  2.51381266335640E-01
DEBUG_STATS_RL: Uice pre  iter (SEAICE_LSR  2) mean=  6.26056742417120E-02
DEBUG_STATS_RL: Uice pre  iter (SEAICE_LSR  2) S.D.=  7.23215228186589E-02
DEBUG_STATS_RL: Vice pre  iter (SEAICE_LSR  2)  min= -1.70146515867233E-01
DEBUG_STATS_RL: Vice pre  iter (SEAICE_LSR  2)  max=  7.01571636850258E-02
DEBUG_STATS_RL: Vice pre  iter (SEAICE_LSR  2) mean= -5.12009841743803E-02
DEBUG_STATS_RL: Vice pre  iter (SEAICE_LSR  2) S.D.=  5.84735965012139E-02
DEBUG_STATS_RL:                EtaN (DYNAMICS)  min= -1.21025777222894E-01
DEBUG_STATS_RL:                EtaN (DYNAMICS)  max=  3.30607450971643E-01
DEBUG_STATS_RL:                EtaN (DYNAMICS) mean= -3.95955825447081E-03
DEBUG_STATS_RL:                EtaN (DYNAMICS) S.D.=  6.93964235759688E-02
DEBUG_STATS_RL:                Uvel (DYNAMICS)  min= -3.57601727936033E-02
DEBUG_STATS_RL:                Uvel (DYNAMICS)  max=  1.04775938290593E-01
DEBUG_STATS_RL:                Uvel (DYNAMICS) mean=  4.39725630125182E-03
DEBUG_STATS_RL:                Uvel (DYNAMICS) S.D.=  1.39028540310335E-02
DEBUG_STATS_RL:                Vvel (DYNAMICS)  min= -1.27584762387762E-01
DEBUG_STATS_RL:                Vvel (DYNAMICS)  max=  6.50083276838834E-02
DEBUG_STATS_RL:                Vvel (DYNAMICS) mean= -3.36887217582008E-03
DEBUG_STATS_RL:                Vvel (DYNAMICS) S.D.=  1.85890275650197E-02
DEBUG_STATS_RL:                Wvel (DYNAMICS)  min= -2.67954696014334E-04
DEBUG_STATS_RL:                Wvel (DYNAMICS)  max=  3.29804232734301E-04
DEBUG_STATS_RL:                Wvel (DYNAMICS) mean= -4.85616750767614E-08
DEBUG_STATS_RL:                Wvel (DYNAMICS) S.D.=  2.84164537902804E-05
DEBUG_STATS_RL:               Theta (DYNAMICS)  min= -1.95963016104374E+00
DEBUG_STATS_RL:               Theta (DYNAMICS)  max=  1.32396343409662E+01
DEBUG_STATS_RL:               Theta (DYNAMICS) mean=  2.41506584132490E+00
DEBUG_STATS_RL:               Theta (DYNAMICS) S.D.=  2.57443936967394E+00
DEBUG_STATS_RL:                Salt (DYNAMICS)  min=  2.76338867569799E+01
DEBUG_STATS_RL:                Salt (DYNAMICS)  max=  3.54511617149686E+01
DEBUG_STATS_RL:                Salt (DYNAMICS) mean=  3.39367496241626E+01
DEBUG_STATS_RL:                Salt (DYNAMICS) S.D.=  1.15359229307638E+00
DEBUG_STATS_RL:                  Gu (DYNAMICS)  min= -5.18639383664093E-02
DEBUG_STATS_RL:                  Gu (DYNAMICS)  max=  1.08500044377568E-01
DEBUG_STATS_RL:                  Gu (DYNAMICS) mean=  2.22152146945400E-03
DEBUG_STATS_RL:                  Gu (DYNAMICS) S.D.=  1.62488741545267E-02
DEBUG_STATS_RL:                  Gv (DYNAMICS)  min= -1.40216393355448E-01
DEBUG_STATS_RL:                  Gv (DYNAMICS)  max=  4.07135165171732E-02
DEBUG_STATS_RL:                  Gv (DYNAMICS) mean= -7.84361289825861E-03
DEBUG_STATS_RL:                  Gv (DYNAMICS) S.D.=  1.86090017356288E-02
DEBUG_STATS_RL:               GuNm1 (DYNAMICS)  min= -3.48473911940034E-07
DEBUG_STATS_RL:               GuNm1 (DYNAMICS)  max=  1.90416017948021E-07
DEBUG_STATS_RL:               GuNm1 (DYNAMICS) mean= -3.12306477014106E-09
DEBUG_STATS_RL:               GuNm1 (DYNAMICS) S.D.=  4.09417632400134E-08
DEBUG_STATS_RL:               GvNm1 (DYNAMICS)  min= -2.15359173477236E-07
DEBUG_STATS_RL:               GvNm1 (DYNAMICS)  max=  1.82438063100004E-07
DEBUG_STATS_RL:               GvNm1 (DYNAMICS) mean= -6.53519601921780E-10
DEBUG_STATS_RL:               GvNm1 (DYNAMICS) S.D.=  4.16452354556348E-08
DEBUG_STATS_RL:               GtNm1 (DYNAMICS)  min=  0.00000000000000E+00
DEBUG_STATS_RL:               GtNm1 (DYNAMICS)  max=  0.00000000000000E+00
DEBUG_STATS_RL:               GtNm1 (DYNAMICS) mean=  0.00000000000000E+00
DEBUG_STATS_RL:               GtNm1 (DYNAMICS) S.D.=  0.00000000000000E+00
DEBUG_STATS_RL:               GsNm1 (DYNAMICS)  min=  0.00000000000000E+00
DEBUG_STATS_RL:               GsNm1 (DYNAMICS)  max=  0.00000000000000E+00
DEBUG_STATS_RL:               GsNm1 (DYNAMICS) mean=  0.00000000000000E+00
DEBUG_STATS_RL:               GsNm1 (DYNAMICS) S.D.=  0.00000000000000E+00
DEBUG_STATS_RL:    cg2d_b (SOLVE_FOR_PRESSURE)  min= -7.37985604508148E+03
DEBUG_STATS_RL:    cg2d_b (SOLVE_FOR_PRESSURE)  max=  2.18366607280435E+03
DEBUG_STATS_RL:    cg2d_b (SOLVE_FOR_PRESSURE) mean=  6.18645875268461E-13
DEBUG_STATS_RL:    cg2d_b (SOLVE_FOR_PRESSURE) S.D.=  8.98963545839594E+02
 cg2d: Sum(rhs),rhsMax =   1.34267597040605E-14  1.18778339080378E+00
DEBUG_STATS_RL:    cg2d_x (SOLVE_FOR_PRESSURE)  min= -1.13929441834640E+00
DEBUG_STATS_RL:    cg2d_x (SOLVE_FOR_PRESSURE)  max=  3.20616731162253E+00
DEBUG_STATS_RL:    cg2d_x (SOLVE_FOR_PRESSURE) mean= -4.15672442271453E-02
DEBUG_STATS_RL:    cg2d_x (SOLVE_FOR_PRESSURE) S.D.=  6.51074617232215E-01
DEBUG_STATS_RL:          Uvel (THERMODYNAMICS)  min= -4.34802359621465E-02
DEBUG_STATS_RL:          Uvel (THERMODYNAMICS)  max=  9.99752242998808E-02
DEBUG_STATS_RL:          Uvel (THERMODYNAMICS) mean=  3.48264152589957E-03
DEBUG_STATS_RL:          Uvel (THERMODYNAMICS) S.D.=  1.35343125506116E-02
DEBUG_STATS_RL:          Vvel (THERMODYNAMICS)  min= -1.33439207289254E-01
DEBUG_STATS_RL:          Vvel (THERMODYNAMICS)  max=  5.60260700766945E-02
DEBUG_STATS_RL:          Vvel (THERMODYNAMICS) mean= -4.02696574872961E-03
DEBUG_STATS_RL:          Vvel (THERMODYNAMICS) S.D.=  1.80273334212797E-02
DEBUG_STATS_RL:          Wvel (THERMODYNAMICS)  min= -2.73348162229354E-04
DEBUG_STATS_RL:          Wvel (THERMODYNAMICS)  max=  3.13596923283671E-04
DEBUG_STATS_RL:          Wvel (THERMODYNAMICS) mean=  4.73709411313520E-08
DEBUG_STATS_RL:          Wvel (THERMODYNAMICS) S.D.=  2.82661454219204E-05
DEBUG_STATS_RL:         Theta (THERMODYNAMICS)  min= -1.95943609422387E+00
DEBUG_STATS_RL:         Theta (THERMODYNAMICS)  max=  1.32225113409295E+01
DEBUG_STATS_RL:         Theta (THERMODYNAMICS) mean=  2.41480286619418E+00
DEBUG_STATS_RL:         Theta (THERMODYNAMICS) S.D.=  2.57398860030337E+00
DEBUG_STATS_RL:          Salt (THERMODYNAMICS)  min=  2.76387468555707E+01
DEBUG_STATS_RL:          Salt (THERMODYNAMICS)  max=  3.54510358217953E+01
DEBUG_STATS_RL:          Salt (THERMODYNAMICS) mean=  3.39367601804946E+01
DEBUG_STATS_RL:          Salt (THERMODYNAMICS) S.D.=  1.15334890349729E+00
DEBUG_STATS_RL:         GtNm1 (THERMODYNAMICS)  min=  0.00000000000000E+00
DEBUG_STATS_RL:         GtNm1 (THERMODYNAMICS)  max=  0.00000000000000E+00
DEBUG_STATS_RL:         GtNm1 (THERMODYNAMICS) mean=  0.00000000000000E+00
DEBUG_STATS_RL:         GtNm1 (THERMODYNAMICS) S.D.=  0.00000000000000E+00
DEBUG_STATS_RL:         GsNm1 (THERMODYNAMICS)  min=  0.00000000000000E+00
DEBUG_STATS_RL:         GsNm1 (THERMODYNAMICS)  max=  0.00000000000000E+00
DEBUG_STATS_RL:         GsNm1 (THERMODYNAMICS) mean=  0.00000000000000E+00
DEBUG_STATS_RL:         GsNm1 (THERMODYNAMICS) S.D.=  0.00000000000000E+00
(PID.TID 0000.0001)  MDS_WRITE_FIELD: it,rec,kS,kL,kH=       1     4   1   1   1 file=m_sst_step.0000000001
(PID.TID 0000.0001)  MDS_READ_FIELD: opening global file: xx_atemp.effective.0000000001.data
(PID.TID 0000.0001) EXF_SET_FLD: processing field "climsss",  file: SSS_monthly.labsea1979
(PID.TID 0000.0001) EXF_SET_FLD:   myIter, count0, count1:         8      1      2
(PID.TID 0000.0001) EXF_SET_FLD:   first, changed, fac:   F   F    0.48907103825136611
(PID.TID 0000.0001) EXF_SET_FLD: processing field "uwind",  file: u10m.labsea1979
(PID.TID 0000.0001) EXF_SET_FLD:   myIter, count0, count1:         8      1      2
(PID.TID 0000.0001) EXF_SET_FLD:   first, changed, fac:   F   F    0.48907103825136611
(PID.TID 0000.0001) EXF_SET_FLD: processing field "vwind",  file: v10m.labsea1979
(PID.TID 0000.0001) EXF_SET_FLD:   myIter, count0, count1:         8      1      2
(PID.TID 0000.0001) EXF_SET_FLD:   first, changed, fac:   F   F    0.48907103825136611
(PID.TID 0000.0001) EXF_SET_FLD: processing field "atemp",  file: tair.labsea1979
(PID.TID 0000.0001) EXF_SET_FLD:   myIter, count0, count1:         8      1      2
(PID.TID 0000.0001) EXF_SET_FLD:   first, changed, fac:   F   F    0.48907103825136611
(PID.TID 0000.0001) EXF_SET_FLD: processing field "aqh",  file: qa.labsea1979
(PID.TID 0000.0001) EXF_SET_FLD:   myIter, count0, count1:         8      1      2
(PID.TID 0000.0001) EXF_SET_FLD:   first, changed, fac:   F   F    0.48907103825136611
(PID.TID 0000.0001) EXF_SET_FLD: processing field "precip",  file: prate.labsea1979
(PID.TID 0000.0001) EXF_SET_FLD:   myIter, count0, count1:         8      1      2
(PID.TID 0000.0001) EXF_SET_FLD:   first, changed, fac:   F   F    0.48907103825136611
(PID.TID 0000.0001) EXF_SET_FLD: processing field "swdown",  file: fsh.labsea1979
(PID.TID 0000.0001) EXF_SET_FLD:   myIter, count0, count1:         8      1      2
(PID.TID 0000.0001) EXF_SET_FLD:   first, changed, fac:   F   F    0.48907103825136611
(PID.TID 0000.0001) EXF_SET_FLD: processing field "lwdown",  file: flo.labsea1979
(PID.TID 0000.0001) EXF_SET_FLD:   myIter, count0, count1:         8      1      2
(PID.TID 0000.0001) EXF_SET_FLD:   first, changed, fac:   F   F    0.48907103825136611
DEBUG_STATS_RL: Uice pre  iter (SEAICE_LSR  1)  min= -1.95687208100102E-02
DEBUG_STATS_RL: Uice pre  iter (SEAICE_LSR  1)  max=  2.56695252608154E-01
DEBUG_STATS_RL: Uice pre  iter (SEAICE_LSR  1) mean=  6.10102626008752E-02
DEBUG_STATS_RL: Uice pre  iter (SEAICE_LSR  1) S.D.=  7.26515133443026E-02
DEBUG_STATS_RL: Vice pre  iter (SEAICE_LSR  1)  min= -1.74351841639993E-01
DEBUG_STATS_RL: Vice pre  iter (SEAICE_LSR  1)  max=  6.17815719868620E-02
DEBUG_STATS_RL: Vice pre  iter (SEAICE_LSR  1) mean= -5.34332922103127E-02
DEBUG_STATS_RL: Vice pre  iter (SEAICE_LSR  1) S.D.=  5.91879685811095E-02
DEBUG_STATS_RL: Uice pre  iter (SEAICE_LSR  2)  min= -2.10631196463131E-02
DEBUG_STATS_RL: Uice pre  iter (SEAICE_LSR  2)  max=  2.47741110498678E-01
DEBUG_STATS_RL: Uice pre  iter (SEAICE_LSR  2) mean=  5.58563099525574E-02
DEBUG_STATS_RL: Uice pre  iter (SEAICE_LSR  2) S.D.=  6.83562873807025E-02
DEBUG_STATS_RL: Vice pre  iter (SEAICE_LSR  2)  min= -1.71270231909308E-01
DEBUG_STATS_RL: Vice pre  iter (SEAICE_LSR  2)  max=  5.00408736690829E-02
DEBUG_STATS_RL: Vice pre  iter (SEAICE_LSR  2) mean= -5.35471708937630E-02
DEBUG_STATS_RL: Vice pre  iter (SEAICE_LSR  2) S.D.=  5.75117440524867E-02
DEBUG_STATS_RL:                EtaN (DYNAMICS)  min= -1.16069768363258E-01
DEBUG_STATS_RL:                EtaN (DYNAMICS)  max=  3.26639972250553E-01
DEBUG_STATS_RL:                EtaN (DYNAMICS) mean= -4.23481440025525E-03
DEBUG_STATS_RL:                EtaN (DYNAMICS) S.D.=  6.63305979494085E-02
DEBUG_STATS_RL:                Uvel (DYNAMICS)  min= -4.34802359621465E-02
DEBUG_STATS_RL:                Uvel (DYNAMICS)  max=  9.99752242998808E-02
DEBUG_STATS_RL:                Uvel (DYNAMICS) mean=  3.48264152589957E-03
DEBUG_STATS_RL:                Uvel (DYNAMICS) S.D.=  1.35343125506116E-02
DEBUG_STATS_RL:                Vvel (DYNAMICS)  min= -1.33439207289254E-01
DEBUG_STATS_RL:                Vvel (DYNAMICS)  max=  5.60260700766945E-02
DEBUG_STATS_RL:                Vvel (DYNAMICS) mean= -4.02696574872961E-03
DEBUG_STATS_RL:                Vvel (DYNAMICS) S.D.=  1.80273334212797E-02
DEBUG_STATS_RL:                Wvel (DYNAMICS)  min= -2.73348162229354E-04
DEBUG_STATS_RL:                Wvel (DYNAMICS)  max=  3.13596923283671E-04
DEBUG_STATS_RL:                Wvel (DYNAMICS) mean=  4.73709411313520E-08
DEBUG_STATS_RL:                Wvel (DYNAMICS) S.D.=  2.82661454219204E-05
DEBUG_STATS_RL:               Theta (DYNAMICS)  min= -1.95943609422387E+00
DEBUG_STATS_RL:               Theta (DYNAMICS)  max=  1.32225113409295E+01
DEBUG_STATS_RL:               Theta (DYNAMICS) mean=  2.41480286619418E+00
DEBUG_STATS_RL:               Theta (DYNAMICS) S.D.=  2.57398860030337E+00
DEBUG_STATS_RL:                Salt (DYNAMICS)  min=  2.76387468555707E+01
DEBUG_STATS_RL:                Salt (DYNAMICS)  max=  3.54510358217953E+01
DEBUG_STATS_RL:                Salt (DYNAMICS) mean=  3.39367601804946E+01
DEBUG_STATS_RL:                Salt (DYNAMICS) S.D.=  1.15334890349729E+00
DEBUG_STATS_RL:                  Gu (DYNAMICS)  min= -5.98368153074020E-02
DEBUG_STATS_RL:                  Gu (DYNAMICS)  max=  9.68873121299251E-02
DEBUG_STATS_RL:                  Gu (DYNAMICS) mean=  1.30194972947503E-03
DEBUG_STATS_RL:                  Gu (DYNAMICS) S.D.=  1.61566615235326E-02
DEBUG_STATS_RL:                  Gv (DYNAMICS)  min= -1.36271217267994E-01
DEBUG_STATS_RL:                  Gv (DYNAMICS)  max=  3.83573237348583E-02
DEBUG_STATS_RL:                  Gv (DYNAMICS) mean= -7.71950831958569E-03
DEBUG_STATS_RL:                  Gv (DYNAMICS) S.D.=  1.77533563667874E-02
DEBUG_STATS_RL:               GuNm1 (DYNAMICS)  min= -3.40955168137046E-07
DEBUG_STATS_RL:               GuNm1 (DYNAMICS)  max=  1.82641400821284E-07
DEBUG_STATS_RL:               GuNm1 (DYNAMICS) mean= -2.79196714442664E-09
DEBUG_STATS_RL:               GuNm1 (DYNAMICS) S.D.=  4.07453533304239E-08
DEBUG_STATS_RL:               GvNm1 (DYNAMICS)  min= -2.14559263714299E-07
DEBUG_STATS_RL:               GvNm1 (DYNAMICS)  max=  1.94148824775153E-07
DEBUG_STATS_RL:               GvNm1 (DYNAMICS) mean= -4.04169206802268E-10
DEBUG_STATS_RL:               GvNm1 (DYNAMICS) S.D.=  4.19222729579498E-08
DEBUG_STATS_RL:               GtNm1 (DYNAMICS)  min=  0.00000000000000E+00
DEBUG_STATS_RL:               GtNm1 (DYNAMICS)  max=  0.00000000000000E+00
DEBUG_STATS_RL:               GtNm1 (DYNAMICS) mean=  0.00000000000000E+00
DEBUG_STATS_RL:               GtNm1 (DYNAMICS) S.D.=  0.00000000000000E+00
DEBUG_STATS_RL:               GsNm1 (DYNAMICS)  min=  0.00000000000000E+00
DEBUG_STATS_RL:               GsNm1 (DYNAMICS)  max=  0.00000000000000E+00
DEBUG_STATS_RL:               GsNm1 (DYNAMICS) mean=  0.00000000000000E+00
DEBUG_STATS_RL:               GsNm1 (DYNAMICS) S.D.=  0.00000000000000E+00
DEBUG_STATS_RL:    cg2d_b (SOLVE_FOR_PRESSURE)  min= -7.29975929937793E+03
DEBUG_STATS_RL:    cg2d_b (SOLVE_FOR_PRESSURE)  max=  2.19478299507054E+03
DEBUG_STATS_RL:    cg2d_b (SOLVE_FOR_PRESSURE) mean= -3.96767063648440E-13
DEBUG_STATS_RL:    cg2d_b (SOLVE_FOR_PRESSURE) S.D.=  8.94146290227710E+02
 cg2d: Sum(rhs),rhsMax =  -6.92501611609941E-15  1.17489186776824E+00
DEBUG_STATS_RL:    cg2d_x (SOLVE_FOR_PRESSURE)  min= -1.08771127617308E+00
DEBUG_STATS_RL:    cg2d_x (SOLVE_FOR_PRESSURE)  max=  3.12128519797376E+00
DEBUG_STATS_RL:    cg2d_x (SOLVE_FOR_PRESSURE) mean= -4.19588396852395E-02
DEBUG_STATS_RL:    cg2d_x (SOLVE_FOR_PRESSURE) S.D.=  6.20262122262901E-01
DEBUG_STATS_RL:          Uvel (THERMODYNAMICS)  min= -5.12375198242059E-02
DEBUG_STATS_RL:          Uvel (THERMODYNAMICS)  max=  8.84896388076339E-02
DEBUG_STATS_RL:          Uvel (THERMODYNAMICS) mean=  2.55769138538291E-03
DEBUG_STATS_RL:          Uvel (THERMODYNAMICS) S.D.=  1.29064693910456E-02
DEBUG_STATS_RL:          Vvel (THERMODYNAMICS)  min= -1.29344604199479E-01
DEBUG_STATS_RL:          Vvel (THERMODYNAMICS)  max=  4.58633296186249E-02
DEBUG_STATS_RL:          Vvel (THERMODYNAMICS) mean= -4.14107843006319E-03
DEBUG_STATS_RL:          Vvel (THERMODYNAMICS) S.D.=  1.66082836245794E-02
DEBUG_STATS_RL:          Wvel (THERMODYNAMICS)  min= -2.60848991809587E-04
DEBUG_STATS_RL:          Wvel (THERMODYNAMICS)  max=  2.85731299794369E-04
DEBUG_STATS_RL:          Wvel (THERMODYNAMICS) mean=  1.36793666178293E-07
DEBUG_STATS_RL:          Wvel (THERMODYNAMICS) S.D.=  2.70580054557619E-05
DEBUG_STATS_RL:         Theta (THERMODYNAMICS)  min= -1.95932886747261E+00
DEBUG_STATS_RL:         Theta (THERMODYNAMICS)  max=  1.32010303660582E+01
DEBUG_STATS_RL:         Theta (THERMODYNAMICS) mean=  2.41452315045422E+00
DEBUG_STATS_RL:         Theta (THERMODYNAMICS) S.D.=  2.57350774067654E+00
DEBUG_STATS_RL:          Salt (THERMODYNAMICS)  min=  2.76435505129419E+01
DEBUG_STATS_RL:          Salt (THERMODYNAMICS)  max=  3.54508660670958E+01
DEBUG_STATS_RL:          Salt (THERMODYNAMICS) mean=  3.39367749828872E+01
DEBUG_STATS_RL:          Salt (THERMODYNAMICS) S.D.=  1.15309738582237E+00
DEBUG_STATS_RL:         GtNm1 (THERMODYNAMICS)  min=  0.00000000000000E+00
DEBUG_STATS_RL:         GtNm1 (THERMODYNAMICS)  max=  0.00000000000000E+00
DEBUG_STATS_RL:         GtNm1 (THERMODYNAMICS) mean=  0.00000000000000E+00
DEBUG_STATS_RL:         GtNm1 (THERMODYNAMICS) S.D.=  0.00000000000000E+00
DEBUG_STATS_RL:         GsNm1 (THERMODYNAMICS)  min=  0.00000000000000E+00
DEBUG_STATS_RL:         GsNm1 (THERMODYNAMICS)  max=  0.00000000000000E+00
DEBUG_STATS_RL:         GsNm1 (THERMODYNAMICS) mean=  0.00000000000000E+00
DEBUG_STATS_RL:         GsNm1 (THERMODYNAMICS) S.D.=  0.00000000000000E+00
(PID.TID 0000.0001) Did not write pickup because writePickupAtEnd = FALSE
(PID.TID 0000.0001)  MDS_WRITE_FIELD: it,rec,kS,kL,kH=       1     5   1   1   1 file=m_sst_step.0000000001
(PID.TID 0000.0001) gencost # 03
(PID.TID 0000.0001)  MDS_READ_FIELD: opening global file: sigma_sst.bin
(PID.TID 0000.0001)  MDS_READ_FIELD: opening global file: m_sst_step.0000000001.data
(PID.TID 0000.0001)  MDS_READ_FIELD: opening global file: labsea_SST_fields_t5
(PID.TID 0000.0001)  MDS_WRITE_FIELD: it,rec,kS,kL,kH=       1     1   1   1   1 file=misfit_sst
(PID.TID 0000.0001)  MDS_READ_FIELD: opening global file: sigma_sst.bin
(PID.TID 0000.0001)  MDS_READ_FIELD: opening global file: m_sst_step.0000000001.data
(PID.TID 0000.0001)  MDS_READ_FIELD: opening global file: labsea_SST_fields_t5
(PID.TID 0000.0001)  MDS_WRITE_FIELD: it,rec,kS,kL,kH=       1     2   1   1   1 file=misfit_sst
(PID.TID 0000.0001)  MDS_READ_FIELD: opening global file: sigma_sst.bin
(PID.TID 0000.0001)  MDS_READ_FIELD: opening global file: m_sst_step.0000000001.data
(PID.TID 0000.0001)  MDS_READ_FIELD: opening global file: labsea_SST_fields_t5
(PID.TID 0000.0001)  MDS_WRITE_FIELD: it,rec,kS,kL,kH=       1     3   1   1   1 file=misfit_sst
(PID.TID 0000.0001)  MDS_READ_FIELD: opening global file: sigma_sst.bin
(PID.TID 0000.0001)  MDS_READ_FIELD: opening global file: m_sst_step.0000000001.data
(PID.TID 0000.0001)  MDS_READ_FIELD: opening global file: labsea_SST_fields_t5
(PID.TID 0000.0001)  MDS_WRITE_FIELD: it,rec,kS,kL,kH=       1     4   1   1   1 file=misfit_sst
(PID.TID 0000.0001)  MDS_READ_FIELD: opening global file: sigma_sst.bin
(PID.TID 0000.0001)  MDS_READ_FIELD: opening global file: m_sst_step.0000000001.data
(PID.TID 0000.0001)  MDS_READ_FIELD: opening global file: labsea_SST_fields_t5
(PID.TID 0000.0001)  MDS_WRITE_FIELD: it,rec,kS,kL,kH=       1     5   1   1   1 file=misfit_sst
(PID.TID 0000.0001)  MDS_READ_FIELD: opening global file: xx_atemp.0000000001.data
(PID.TID 0000.0001)  MDS_READ_FIELD: opening global file: xx_atemp.0000000001.data
(PID.TID 0000.0001)  MDS_READ_FIELD: opening global file: xx_atemp.0000000001.data
(PID.TID 0000.0001)  MDS_READ_FIELD: opening global file: xx_atemp.0000000001.data
(PID.TID 0000.0001)  MDS_READ_FIELD: opening global file: xx_atemp.0000000001.data
(PID.TID 0000.0001)  MDS_READ_FIELD: opening global file: xx_atemp.0000000001.data
(PID.TID 0000.0001)  MDS_READ_FIELD: opening global file: xx_atemp.0000000001.data
(PID.TID 0000.0001)  MDS_READ_FIELD: opening global file: xx_atemp.0000000001.data
(PID.TID 0000.0001)  MDS_READ_FIELD: opening global file: xx_atemp.0000000001.data
(PID.TID 0000.0001)  MDS_READ_FIELD: opening global file: xx_atemp.0000000001.data
(PID.TID 0000.0001)  MDS_READ_FIELD: opening global file: xx_atemp.0000000001.data
 --> f_ice     = 0.000000000000000D+00
 --> f_smrarea = 0.000000000000000D+00
 --> f_smrarea = 0.000000000000000D+00
 --> f_smrarea = 0.000000000000000D+00
(PID.TID 0000.0001)  --> f_gencost = 0.527453128215446D+04 3
(PID.TID 0000.0001)  --> f_gentim2d = 0.243374980010000D+03 1
(PID.TID 0000.0001)  --> fc               = 0.527453128215446D+04
(PID.TID 0000.0001)  cost_Final: final cost function =  0.527453128215446D+04
(PID.TID 0000.0001) 
(PID.TID 0000.0001)              cost function evaluation finished.
(PID.TID 0000.0001) 
(PID.TID 0000.0001)   early fc =  0.000000000000000D+00
(PID.TID 0000.0001)   local fc =  0.527453128215446D+04
(PID.TID 0000.0001)  global fc =  0.527453128215446D+04
(PID.TID 0000.0001) grdchk perturb(-)fc: fcpertminus =  5.27453128215446E+03
(PID.TID 0000.0001)  MDS_READ_FIELD: opening global file: xx_atemp.0000000001.data
(PID.TID 0000.0001)  MDS_WRITE_FIELD: it,rec,kS,kL,kH=       1     1   1   1   1 file=xx_atemp.0000000001
grad-res -------------------------------
 grad-res     0    4    9    8    1    1    1    1   5.27453128215E+03  5.27453128215E+03  5.27453128215E+03
 grad-res     0    4    4   78    0    1    1    1   0.00000000000E+00  0.00000000000E+00  0.00000000000E+00
(PID.TID 0000.0001)  ADM  ref_cost_function      =  5.27453128215446E+03
(PID.TID 0000.0001)  ADM  adjoint_gradient       =  0.00000000000000E+00
(PID.TID 0000.0001)  ADM  finite-diff_grad       =  0.00000000000000E+00
(PID.TID 0000.0001) ====== End of gradient-check number   4 (ierr=  0) =======
(PID.TID 0000.0001) ====== Starts gradient-check number   5 (=ichknum) =======
 ph-test icomp, ncvarcomp, ichknum           79        1650           5
 ph-grd _loc: bi, bj, icomptest, ichknum            1           1          78           5
 ph-grd -->hit<--           10           8           1           1
(PID.TID 0000.0001) grdchk pos: i,j,k=   10    8    1 ; bi,bj=   1   1 ; iobc=  1 ; rec=   1
(PID.TID 0000.0001)  MDS_READ_FIELD: opening global file: adxx_atemp.0000000001.data
(PID.TID 0000.0001)  MDS_READ_FIELD: opening global file: xx_atemp.0000000001.data
(PID.TID 0000.0001)  MDS_WRITE_FIELD: it,rec,kS,kL,kH=       1     1   1   1   1 file=xx_atemp.0000000001
(PID.TID 0000.0001)  MDS_READ_META: opening file: pickup.0000000005.meta
(PID.TID 0000.0001)  nRecords = 141 ; filePrec =  64 ; fileIter =         5
(PID.TID 0000.0001)     nDims =   2 , dims:
(PID.TID 0000.0001)    1:  20   1  20
(PID.TID 0000.0001)    2:  16   1  16
(PID.TID 0000.0001)     nFlds =   9 , nFl3D =   6 , fields:
(PID.TID 0000.0001)  >Uvel    < >Vvel    < >Theta   < >Salt    < >GuNm1   < >GvNm1   < >EtaN    < >dEtaHdt < >EtaH    <
(PID.TID 0000.0001) missingVal=  1.00000000000000E+00 ; nTimRec =   1 , timeList:
(PID.TID 0000.0001)   1.800000000000E+04
(PID.TID 0000.0001) READ_MFLDS_3D_RL: read field: "Uvel    ", #   1 in fldList, rec=   1
(PID.TID 0000.0001)  MDS_READ_FIELD: opening global file: pickup.0000000005.data
(PID.TID 0000.0001) READ_MFLDS_3D_RL: read field: "Vvel    ", #   2 in fldList, rec=   2
(PID.TID 0000.0001)  MDS_READ_FIELD: opening global file: pickup.0000000005.data
(PID.TID 0000.0001) READ_MFLDS_3D_RL: read field: "Theta   ", #   3 in fldList, rec=   3
(PID.TID 0000.0001)  MDS_READ_FIELD: opening global file: pickup.0000000005.data
(PID.TID 0000.0001) READ_MFLDS_3D_RL: read field: "Salt    ", #   4 in fldList, rec=   4
(PID.TID 0000.0001)  MDS_READ_FIELD: opening global file: pickup.0000000005.data
(PID.TID 0000.0001) READ_MFLDS_3D_RL: read field: "GuNm1   ", #   5 in fldList, rec=   5
(PID.TID 0000.0001)  MDS_READ_FIELD: opening global file: pickup.0000000005.data
(PID.TID 0000.0001) READ_MFLDS_3D_RL: read field: "GvNm1   ", #   6 in fldList, rec=   6
(PID.TID 0000.0001)  MDS_READ_FIELD: opening global file: pickup.0000000005.data
(PID.TID 0000.0001) READ_MFLDS_3D_RL: read field: "EtaN    ", #   7 in fldList, rec= 139
(PID.TID 0000.0001)  MDS_READ_FIELD: opening global file: pickup.0000000005.data
(PID.TID 0000.0001) READ_MFLDS_CHECK: - normal end ; reset MFLDS file-name: pickup.0000000005
(PID.TID 0000.0001)  MDS_READ_FIELD: opening global file: pickup_cd.0000000005.data
(PID.TID 0000.0001)  MDS_READ_FIELD: opening global file: pickup_cd.0000000005.data
(PID.TID 0000.0001)  MDS_READ_FIELD: opening global file: pickup_cd.0000000005.data
(PID.TID 0000.0001)  MDS_READ_FIELD: opening global file: pickup_cd.0000000005.data
(PID.TID 0000.0001)  MDS_READ_FIELD: opening global file: pickup_cd.0000000005.data
(PID.TID 0000.0001)  MDS_READ_META: opening file: pickup_seaice.0000000005.meta
(PID.TID 0000.0001)  nRecords =  13 ; filePrec =  64 ; fileIter =         5
(PID.TID 0000.0001)     nDims =   2 , dims:
(PID.TID 0000.0001)    1:  20   1  20
(PID.TID 0000.0001)    2:  16   1  16
(PID.TID 0000.0001)     nFlds =   7 , nFl3D =   1 , fields:
(PID.TID 0000.0001)  >siTICES < >siAREA  < >siHEFF  < >siHSNOW < >siHSALT < >siUICE  < >siVICE  <
(PID.TID 0000.0001) missingVal=  1.00000000000000E+00 ; nTimRec =   1 , timeList:
(PID.TID 0000.0001)   1.800000000000E+04
(PID.TID 0000.0001) READ_MFLDS_3D_RL: read field: "siTICES ", #   1 in fldList, rec=   1
(PID.TID 0000.0001)  MDS_READ_FIELD: opening global file: pickup_seaice.0000000005.data
(PID.TID 0000.0001) READ_MFLDS_3D_RL: read field: "siAREA  ", #   2 in fldList, rec=   8
(PID.TID 0000.0001)  MDS_READ_FIELD: opening global file: pickup_seaice.0000000005.data
(PID.TID 0000.0001) READ_MFLDS_3D_RL: read field: "siHEFF  ", #   3 in fldList, rec=   9
(PID.TID 0000.0001)  MDS_READ_FIELD: opening global file: pickup_seaice.0000000005.data
(PID.TID 0000.0001) READ_MFLDS_3D_RL: read field: "siHSNOW ", #   4 in fldList, rec=  10
(PID.TID 0000.0001)  MDS_READ_FIELD: opening global file: pickup_seaice.0000000005.data
(PID.TID 0000.0001) READ_MFLDS_3D_RL: read field: "siHSALT ", #   5 in fldList, rec=  11
(PID.TID 0000.0001)  MDS_READ_FIELD: opening global file: pickup_seaice.0000000005.data
(PID.TID 0000.0001) READ_MFLDS_3D_RL: read field: "siUICE  ", #   6 in fldList, rec=  12
(PID.TID 0000.0001)  MDS_READ_FIELD: opening global file: pickup_seaice.0000000005.data
(PID.TID 0000.0001) READ_MFLDS_3D_RL: read field: "siVICE  ", #   7 in fldList, rec=  13
(PID.TID 0000.0001)  MDS_READ_FIELD: opening global file: pickup_seaice.0000000005.data
(PID.TID 0000.0001) READ_MFLDS_CHECK: - normal end ; reset MFLDS file-name: pickup_seaice.0000000005
(PID.TID 0000.0001) CTRL_INIT_REC: Getting record indices for xx_atemp
(PID.TID 0000.0001) CTRL_INIT_REC: Record indices for xx_atemp:
(PID.TID 0000.0001) CTRL_INIT_REC: startrec =          6, endrec =         11
(PID.TID 0000.0001)  MDS_READ_FIELD: opening global file: xx_atemp.0000000001.data
(PID.TID 0000.0001)  MDS_WRITE_FIELD: it,rec,kS,kL,kH=       1     1   1   1   1 file=xx_atemp.effective.0000000001
(PID.TID 0000.0001)  MDS_READ_FIELD: opening global file: xx_atemp.0000000001.data
(PID.TID 0000.0001)  MDS_WRITE_FIELD: it,rec,kS,kL,kH=       1     2   1   1   1 file=xx_atemp.effective.0000000001
(PID.TID 0000.0001)  MDS_READ_FIELD: opening global file: xx_atemp.0000000001.data
(PID.TID 0000.0001)  MDS_WRITE_FIELD: it,rec,kS,kL,kH=       1     3   1   1   1 file=xx_atemp.effective.0000000001
(PID.TID 0000.0001)  MDS_READ_FIELD: opening global file: xx_atemp.0000000001.data
(PID.TID 0000.0001)  MDS_WRITE_FIELD: it,rec,kS,kL,kH=       1     4   1   1   1 file=xx_atemp.effective.0000000001
(PID.TID 0000.0001)  MDS_READ_FIELD: opening global file: xx_atemp.0000000001.data
(PID.TID 0000.0001)  MDS_WRITE_FIELD: it,rec,kS,kL,kH=       1     5   1   1   1 file=xx_atemp.effective.0000000001
(PID.TID 0000.0001)  MDS_READ_FIELD: opening global file: xx_atemp.0000000001.data
(PID.TID 0000.0001)  MDS_WRITE_FIELD: it,rec,kS,kL,kH=       1     6   1   1   1 file=xx_atemp.effective.0000000001
(PID.TID 0000.0001)  MDS_READ_FIELD: opening global file: xx_atemp.effective.0000000001.data
(PID.TID 0000.0001)  MDS_READ_FIELD: opening global file: ones_64b.bin
(PID.TID 0000.0001)  MDS_WRITE_FIELD: it,rec,kS,kL,kH=       1     1   1   1   1 file=xx_atemp.effective.0000000001
(PID.TID 0000.0001)  MDS_READ_FIELD: opening global file: xx_atemp.effective.0000000001.data
(PID.TID 0000.0001)  MDS_READ_FIELD: opening global file: ones_64b.bin
(PID.TID 0000.0001)  MDS_WRITE_FIELD: it,rec,kS,kL,kH=       1     2   1   1   1 file=xx_atemp.effective.0000000001
(PID.TID 0000.0001)  MDS_READ_FIELD: opening global file: xx_atemp.effective.0000000001.data
(PID.TID 0000.0001)  MDS_READ_FIELD: opening global file: ones_64b.bin
(PID.TID 0000.0001)  MDS_WRITE_FIELD: it,rec,kS,kL,kH=       1     3   1   1   1 file=xx_atemp.effective.0000000001
(PID.TID 0000.0001)  MDS_READ_FIELD: opening global file: xx_atemp.effective.0000000001.data
(PID.TID 0000.0001)  MDS_READ_FIELD: opening global file: ones_64b.bin
(PID.TID 0000.0001)  MDS_WRITE_FIELD: it,rec,kS,kL,kH=       1     4   1   1   1 file=xx_atemp.effective.0000000001
(PID.TID 0000.0001)  MDS_READ_FIELD: opening global file: xx_atemp.effective.0000000001.data
(PID.TID 0000.0001)  MDS_READ_FIELD: opening global file: ones_64b.bin
(PID.TID 0000.0001)  MDS_WRITE_FIELD: it,rec,kS,kL,kH=       1     5   1   1   1 file=xx_atemp.effective.0000000001
(PID.TID 0000.0001)  MDS_READ_FIELD: opening global file: xx_atemp.effective.0000000001.data
(PID.TID 0000.0001)  MDS_READ_FIELD: opening global file: ones_64b.bin
(PID.TID 0000.0001)  MDS_WRITE_FIELD: it,rec,kS,kL,kH=       1     6   1   1   1 file=xx_atemp.effective.0000000001
(PID.TID 0000.0001) // =======================================================
(PID.TID 0000.0001) // Model current state
(PID.TID 0000.0001) // =======================================================
(PID.TID 0000.0001) 
(PID.TID 0000.0001)  MDS_WRITE_FIELD: it,rec,kS,kL,kH=       1     1   1   1   1 file=m_sst_step.0000000001
(PID.TID 0000.0001)  MDS_READ_FIELD: opening global file: xx_atemp.effective.0000000001.data
(PID.TID 0000.0001)  MDS_READ_FIELD: opening global file: xx_atemp.effective.0000000001.data
(PID.TID 0000.0001) EXF_SET_FLD: processing field "climsss",  file: SSS_monthly.labsea1979
(PID.TID 0000.0001) EXF_SET_FLD:   myIter, count0, count1:         5      1      2
(PID.TID 0000.0001) EXF_SET_FLD:   first, changed, fac:   T   F    0.49316939890710387
(PID.TID 0000.0001) EXF_SET_FLD: field "climsss", it=         5, loading rec=     1
(PID.TID 0000.0001) EXF_SET_FLD:   from file: "SSS_monthly.labsea1979"
(PID.TID 0000.0001)  MDS_READ_FIELD: opening global file: SSS_monthly.labsea1979
(PID.TID 0000.0001) EXF_SET_FLD: field "climsss", it=         5, loading rec=     2
(PID.TID 0000.0001) EXF_SET_FLD:   from file: "SSS_monthly.labsea1979"
(PID.TID 0000.0001)  MDS_READ_FIELD: opening global file: SSS_monthly.labsea1979
(PID.TID 0000.0001) EXF_SET_FLD: processing field "uwind",  file: u10m.labsea1979
(PID.TID 0000.0001) EXF_SET_FLD:   myIter, count0, count1:         5      1      2
(PID.TID 0000.0001) EXF_SET_FLD:   first, changed, fac:   T   F    0.49316939890710387
(PID.TID 0000.0001) EXF_SET_FLD: field "uwind", it=         5, loading rec=     1
(PID.TID 0000.0001) EXF_SET_FLD:   from file: "u10m.labsea1979"
(PID.TID 0000.0001)  MDS_READ_FIELD: opening global file: u10m.labsea1979
(PID.TID 0000.0001) EXF_SET_FLD: field "uwind", it=         5, loading rec=     2
(PID.TID 0000.0001) EXF_SET_FLD:   from file: "u10m.labsea1979"
(PID.TID 0000.0001)  MDS_READ_FIELD: opening global file: u10m.labsea1979
(PID.TID 0000.0001) EXF_SET_FLD: processing field "vwind",  file: v10m.labsea1979
(PID.TID 0000.0001) EXF_SET_FLD:   myIter, count0, count1:         5      1      2
(PID.TID 0000.0001) EXF_SET_FLD:   first, changed, fac:   T   F    0.49316939890710387
(PID.TID 0000.0001) EXF_SET_FLD: field "vwind", it=         5, loading rec=     1
(PID.TID 0000.0001) EXF_SET_FLD:   from file: "v10m.labsea1979"
(PID.TID 0000.0001)  MDS_READ_FIELD: opening global file: v10m.labsea1979
(PID.TID 0000.0001) EXF_SET_FLD: field "vwind", it=         5, loading rec=     2
(PID.TID 0000.0001) EXF_SET_FLD:   from file: "v10m.labsea1979"
(PID.TID 0000.0001)  MDS_READ_FIELD: opening global file: v10m.labsea1979
(PID.TID 0000.0001) EXF_SET_FLD: processing field "atemp",  file: tair.labsea1979
(PID.TID 0000.0001) EXF_SET_FLD:   myIter, count0, count1:         5      1      2
(PID.TID 0000.0001) EXF_SET_FLD:   first, changed, fac:   T   F    0.49316939890710387
(PID.TID 0000.0001) EXF_SET_FLD: field "atemp", it=         5, loading rec=     1
(PID.TID 0000.0001) EXF_SET_FLD:   from file: "tair.labsea1979"
(PID.TID 0000.0001)  MDS_READ_FIELD: opening global file: tair.labsea1979
(PID.TID 0000.0001) EXF_SET_FLD: field "atemp", it=         5, loading rec=     2
(PID.TID 0000.0001) EXF_SET_FLD:   from file: "tair.labsea1979"
(PID.TID 0000.0001)  MDS_READ_FIELD: opening global file: tair.labsea1979
(PID.TID 0000.0001) EXF_SET_FLD: processing field "aqh",  file: qa.labsea1979
(PID.TID 0000.0001) EXF_SET_FLD:   myIter, count0, count1:         5      1      2
(PID.TID 0000.0001) EXF_SET_FLD:   first, changed, fac:   T   F    0.49316939890710387
(PID.TID 0000.0001) EXF_SET_FLD: field "aqh", it=         5, loading rec=     1
(PID.TID 0000.0001) EXF_SET_FLD:   from file: "qa.labsea1979"
(PID.TID 0000.0001)  MDS_READ_FIELD: opening global file: qa.labsea1979
(PID.TID 0000.0001) EXF_SET_FLD: field "aqh", it=         5, loading rec=     2
(PID.TID 0000.0001) EXF_SET_FLD:   from file: "qa.labsea1979"
(PID.TID 0000.0001)  MDS_READ_FIELD: opening global file: qa.labsea1979
(PID.TID 0000.0001) EXF_SET_FLD: processing field "precip",  file: prate.labsea1979
(PID.TID 0000.0001) EXF_SET_FLD:   myIter, count0, count1:         5      1      2
(PID.TID 0000.0001) EXF_SET_FLD:   first, changed, fac:   T   F    0.49316939890710387
(PID.TID 0000.0001) EXF_SET_FLD: field "precip", it=         5, loading rec=     1
(PID.TID 0000.0001) EXF_SET_FLD:   from file: "prate.labsea1979"
(PID.TID 0000.0001)  MDS_READ_FIELD: opening global file: prate.labsea1979
(PID.TID 0000.0001) EXF_SET_FLD: field "precip", it=         5, loading rec=     2
(PID.TID 0000.0001) EXF_SET_FLD:   from file: "prate.labsea1979"
(PID.TID 0000.0001)  MDS_READ_FIELD: opening global file: prate.labsea1979
(PID.TID 0000.0001) EXF_SET_FLD: processing field "swdown",  file: fsh.labsea1979
(PID.TID 0000.0001) EXF_SET_FLD:   myIter, count0, count1:         5      1      2
(PID.TID 0000.0001) EXF_SET_FLD:   first, changed, fac:   T   F    0.49316939890710387
(PID.TID 0000.0001) EXF_SET_FLD: field "swdown", it=         5, loading rec=     1
(PID.TID 0000.0001) EXF_SET_FLD:   from file: "fsh.labsea1979"
(PID.TID 0000.0001)  MDS_READ_FIELD: opening global file: fsh.labsea1979
(PID.TID 0000.0001) EXF_SET_FLD: field "swdown", it=         5, loading rec=     2
(PID.TID 0000.0001) EXF_SET_FLD:   from file: "fsh.labsea1979"
(PID.TID 0000.0001)  MDS_READ_FIELD: opening global file: fsh.labsea1979
(PID.TID 0000.0001) EXF_SET_FLD: processing field "lwdown",  file: flo.labsea1979
(PID.TID 0000.0001) EXF_SET_FLD:   myIter, count0, count1:         5      1      2
(PID.TID 0000.0001) EXF_SET_FLD:   first, changed, fac:   T   F    0.49316939890710387
(PID.TID 0000.0001) EXF_SET_FLD: field "lwdown", it=         5, loading rec=     1
(PID.TID 0000.0001) EXF_SET_FLD:   from file: "flo.labsea1979"
(PID.TID 0000.0001)  MDS_READ_FIELD: opening global file: flo.labsea1979
(PID.TID 0000.0001) EXF_SET_FLD: field "lwdown", it=         5, loading rec=     2
(PID.TID 0000.0001) EXF_SET_FLD:   from file: "flo.labsea1979"
(PID.TID 0000.0001)  MDS_READ_FIELD: opening global file: flo.labsea1979
DEBUG_STATS_RL: Uice pre  iter (SEAICE_LSR  1)  min= -9.02121933428159E-03
DEBUG_STATS_RL: Uice pre  iter (SEAICE_LSR  1)  max=  2.19445684647109E-01
DEBUG_STATS_RL: Uice pre  iter (SEAICE_LSR  1) mean=  6.96639305502532E-02
DEBUG_STATS_RL: Uice pre  iter (SEAICE_LSR  1) S.D.=  7.25590715280224E-02
DEBUG_STATS_RL: Vice pre  iter (SEAICE_LSR  1)  min= -1.73112057819563E-01
DEBUG_STATS_RL: Vice pre  iter (SEAICE_LSR  1)  max=  1.05174802576008E-01
DEBUG_STATS_RL: Vice pre  iter (SEAICE_LSR  1) mean= -3.44957645455127E-02
DEBUG_STATS_RL: Vice pre  iter (SEAICE_LSR  1) S.D.=  5.17027322842165E-02
DEBUG_STATS_RL: Uice pre  iter (SEAICE_LSR  2)  min= -9.93295031152210E-03
DEBUG_STATS_RL: Uice pre  iter (SEAICE_LSR  2)  max=  2.37649472779152E-01
DEBUG_STATS_RL: Uice pre  iter (SEAICE_LSR  2) mean=  7.08960993522900E-02
DEBUG_STATS_RL: Uice pre  iter (SEAICE_LSR  2) S.D.=  7.51814019583860E-02
DEBUG_STATS_RL: Vice pre  iter (SEAICE_LSR  2)  min= -1.73458139241626E-01
DEBUG_STATS_RL: Vice pre  iter (SEAICE_LSR  2)  max=  1.02503634704982E-01
DEBUG_STATS_RL: Vice pre  iter (SEAICE_LSR  2) mean= -3.89801386768760E-02
DEBUG_STATS_RL: Vice pre  iter (SEAICE_LSR  2) S.D.=  5.44920749395038E-02
DEBUG_STATS_RL:                EtaN (DYNAMICS)  min= -1.29709672821213E-01
DEBUG_STATS_RL:                EtaN (DYNAMICS)  max=  3.25626876398477E-01
DEBUG_STATS_RL:                EtaN (DYNAMICS) mean= -3.00841690122536E-03
DEBUG_STATS_RL:                EtaN (DYNAMICS) S.D.=  7.54180814594036E-02
DEBUG_STATS_RL:                Uvel (DYNAMICS)  min= -3.64296443204224E-02
DEBUG_STATS_RL:                Uvel (DYNAMICS)  max=  8.91662112566489E-02
DEBUG_STATS_RL:                Uvel (DYNAMICS) mean=  5.18186102505262E-03
DEBUG_STATS_RL:                Uvel (DYNAMICS) S.D.=  1.36791834404111E-02
DEBUG_STATS_RL:                Vvel (DYNAMICS)  min= -8.48427067731397E-02
DEBUG_STATS_RL:                Vvel (DYNAMICS)  max=  7.15709637633448E-02
DEBUG_STATS_RL:                Vvel (DYNAMICS) mean= -6.25663991250223E-04
DEBUG_STATS_RL:                Vvel (DYNAMICS) S.D.=  1.65568599029307E-02
DEBUG_STATS_RL:                Wvel (DYNAMICS)  min= -2.02998023749463E-04
DEBUG_STATS_RL:                Wvel (DYNAMICS)  max=  3.07634744219620E-04
DEBUG_STATS_RL:                Wvel (DYNAMICS) mean= -2.14485636605179E-07
DEBUG_STATS_RL:                Wvel (DYNAMICS) S.D.=  2.56514188295233E-05
DEBUG_STATS_RL:               Theta (DYNAMICS)  min= -1.95891909892377E+00
DEBUG_STATS_RL:               Theta (DYNAMICS)  max=  1.32575107273067E+01
DEBUG_STATS_RL:               Theta (DYNAMICS) mean=  2.41560973729717E+00
DEBUG_STATS_RL:               Theta (DYNAMICS) S.D.=  2.57506629522921E+00
DEBUG_STATS_RL:                Salt (DYNAMICS)  min=  2.76241835718781E+01
DEBUG_STATS_RL:                Salt (DYNAMICS)  max=  3.54512322319690E+01
DEBUG_STATS_RL:                Salt (DYNAMICS) mean=  3.39367610972827E+01
DEBUG_STATS_RL:                Salt (DYNAMICS) S.D.=  1.15400523729775E+00
DEBUG_STATS_RL:                  Gu (DYNAMICS)  min= -3.40661284878781E-02
DEBUG_STATS_RL:                  Gu (DYNAMICS)  max=  1.09592409505601E-01
DEBUG_STATS_RL:                  Gu (DYNAMICS) mean=  3.43340148231612E-03
DEBUG_STATS_RL:                  Gu (DYNAMICS) S.D.=  1.52106643070904E-02
DEBUG_STATS_RL:                  Gv (DYNAMICS)  min= -1.19743996000496E-01
DEBUG_STATS_RL:                  Gv (DYNAMICS)  max=  5.31755908727337E-02
DEBUG_STATS_RL:                  Gv (DYNAMICS) mean= -6.43607759844673E-03
DEBUG_STATS_RL:                  Gv (DYNAMICS) S.D.=  1.74595586593132E-02
DEBUG_STATS_RL:               GuNm1 (DYNAMICS)  min= -2.94347299884301E-07
DEBUG_STATS_RL:               GuNm1 (DYNAMICS)  max=  1.78770581560375E-07
DEBUG_STATS_RL:               GuNm1 (DYNAMICS) mean= -3.06311171945198E-09
DEBUG_STATS_RL:               GuNm1 (DYNAMICS) S.D.=  4.19614199163276E-08
DEBUG_STATS_RL:               GvNm1 (DYNAMICS)  min= -1.82273635415880E-07
DEBUG_STATS_RL:               GvNm1 (DYNAMICS)  max=  1.24273330978528E-07
DEBUG_STATS_RL:               GvNm1 (DYNAMICS) mean= -1.05360009952046E-09
DEBUG_STATS_RL:               GvNm1 (DYNAMICS) S.D.=  3.58773704868012E-08
DEBUG_STATS_RL:               GtNm1 (DYNAMICS)  min=  0.00000000000000E+00
DEBUG_STATS_RL:               GtNm1 (DYNAMICS)  max=  0.00000000000000E+00
DEBUG_STATS_RL:               GtNm1 (DYNAMICS) mean=  0.00000000000000E+00
DEBUG_STATS_RL:               GtNm1 (DYNAMICS) S.D.=  0.00000000000000E+00
DEBUG_STATS_RL:               GsNm1 (DYNAMICS)  min=  0.00000000000000E+00
DEBUG_STATS_RL:               GsNm1 (DYNAMICS)  max=  0.00000000000000E+00
DEBUG_STATS_RL:               GsNm1 (DYNAMICS) mean=  0.00000000000000E+00
DEBUG_STATS_RL:               GsNm1 (DYNAMICS) S.D.=  0.00000000000000E+00
(PID.TID 0000.0001) SOLVE_FOR_PRESSURE: putPmEinXvector =    F
DEBUG_STATS_RL:    cg2d_b (SOLVE_FOR_PRESSURE)  min= -7.45833771571459E+03
DEBUG_STATS_RL:    cg2d_b (SOLVE_FOR_PRESSURE)  max=  2.17494903027769E+03
DEBUG_STATS_RL:    cg2d_b (SOLVE_FOR_PRESSURE) mean=  4.18935997004155E-13
DEBUG_STATS_RL:    cg2d_b (SOLVE_FOR_PRESSURE) S.D.=  9.06377010650268E+02
 cg2d: Sum(rhs),rhsMax =   8.29197821516914E-15  1.20041496847834E+00
DEBUG_STATS_RL:    cg2d_x (SOLVE_FOR_PRESSURE)  min= -1.23196163368130E+00
DEBUG_STATS_RL:    cg2d_x (SOLVE_FOR_PRESSURE)  max=  3.23727429689848E+00
DEBUG_STATS_RL:    cg2d_x (SOLVE_FOR_PRESSURE) mean= -3.45194761148230E-02
DEBUG_STATS_RL:    cg2d_x (SOLVE_FOR_PRESSURE) S.D.=  7.10912240392561E-01
DEBUG_STATS_RL:          Uvel (THERMODYNAMICS)  min= -3.59096386964102E-02
DEBUG_STATS_RL:          Uvel (THERMODYNAMICS)  max=  1.01288605318195E-01
DEBUG_STATS_RL:          Uvel (THERMODYNAMICS) mean=  5.06442107691443E-03
DEBUG_STATS_RL:          Uvel (THERMODYNAMICS) S.D.=  1.40087544095653E-02
DEBUG_STATS_RL:          Vvel (THERMODYNAMICS)  min= -1.10756263988798E-01
DEBUG_STATS_RL:          Vvel (THERMODYNAMICS)  max=  7.07208418107748E-02
DEBUG_STATS_RL:          Vvel (THERMODYNAMICS) mean= -2.17557054828444E-03
DEBUG_STATS_RL:          Vvel (THERMODYNAMICS) S.D.=  1.80912833066385E-02
DEBUG_STATS_RL:          Wvel (THERMODYNAMICS)  min= -2.43811460414301E-04
DEBUG_STATS_RL:          Wvel (THERMODYNAMICS)  max=  3.28816353261790E-04
DEBUG_STATS_RL:          Wvel (THERMODYNAMICS) mean= -1.37923543342930E-07
DEBUG_STATS_RL:          Wvel (THERMODYNAMICS) S.D.=  2.75149300864468E-05
DEBUG_STATS_RL:         Theta (THERMODYNAMICS)  min= -1.96015217723737E+00
DEBUG_STATS_RL:         Theta (THERMODYNAMICS)  max=  1.32512671183370E+01
DEBUG_STATS_RL:         Theta (THERMODYNAMICS) mean=  2.41531606071968E+00
DEBUG_STATS_RL:         Theta (THERMODYNAMICS) S.D.=  2.57483151675911E+00
DEBUG_STATS_RL:          Salt (THERMODYNAMICS)  min=  2.76290307531745E+01
DEBUG_STATS_RL:          Salt (THERMODYNAMICS)  max=  3.54512307060718E+01
DEBUG_STATS_RL:          Salt (THERMODYNAMICS) mean=  3.39367446276238E+01
DEBUG_STATS_RL:          Salt (THERMODYNAMICS) S.D.=  1.15382313156805E+00
DEBUG_STATS_RL:         GtNm1 (THERMODYNAMICS)  min=  0.00000000000000E+00
DEBUG_STATS_RL:         GtNm1 (THERMODYNAMICS)  max=  0.00000000000000E+00
DEBUG_STATS_RL:         GtNm1 (THERMODYNAMICS) mean=  0.00000000000000E+00
DEBUG_STATS_RL:         GtNm1 (THERMODYNAMICS) S.D.=  0.00000000000000E+00
DEBUG_STATS_RL:         GsNm1 (THERMODYNAMICS)  min=  0.00000000000000E+00
DEBUG_STATS_RL:         GsNm1 (THERMODYNAMICS)  max=  0.00000000000000E+00
DEBUG_STATS_RL:         GsNm1 (THERMODYNAMICS) mean=  0.00000000000000E+00
DEBUG_STATS_RL:         GsNm1 (THERMODYNAMICS) S.D.=  0.00000000000000E+00
(PID.TID 0000.0001)  MDS_WRITE_FIELD: it,rec,kS,kL,kH=       1     2   1   1   1 file=m_sst_step.0000000001
(PID.TID 0000.0001)  MDS_READ_FIELD: opening global file: xx_atemp.effective.0000000001.data
(PID.TID 0000.0001) EXF_SET_FLD: processing field "climsss",  file: SSS_monthly.labsea1979
(PID.TID 0000.0001) EXF_SET_FLD:   myIter, count0, count1:         6      1      2
(PID.TID 0000.0001) EXF_SET_FLD:   first, changed, fac:   F   F    0.49180327868852458
(PID.TID 0000.0001) EXF_SET_FLD: processing field "uwind",  file: u10m.labsea1979
(PID.TID 0000.0001) EXF_SET_FLD:   myIter, count0, count1:         6      1      2
(PID.TID 0000.0001) EXF_SET_FLD:   first, changed, fac:   F   F    0.49180327868852458
(PID.TID 0000.0001) EXF_SET_FLD: processing field "vwind",  file: v10m.labsea1979
(PID.TID 0000.0001) EXF_SET_FLD:   myIter, count0, count1:         6      1      2
(PID.TID 0000.0001) EXF_SET_FLD:   first, changed, fac:   F   F    0.49180327868852458
(PID.TID 0000.0001) EXF_SET_FLD: processing field "atemp",  file: tair.labsea1979
(PID.TID 0000.0001) EXF_SET_FLD:   myIter, count0, count1:         6      1      2
(PID.TID 0000.0001) EXF_SET_FLD:   first, changed, fac:   F   F    0.49180327868852458
(PID.TID 0000.0001) EXF_SET_FLD: processing field "aqh",  file: qa.labsea1979
(PID.TID 0000.0001) EXF_SET_FLD:   myIter, count0, count1:         6      1      2
(PID.TID 0000.0001) EXF_SET_FLD:   first, changed, fac:   F   F    0.49180327868852458
(PID.TID 0000.0001) EXF_SET_FLD: processing field "precip",  file: prate.labsea1979
(PID.TID 0000.0001) EXF_SET_FLD:   myIter, count0, count1:         6      1      2
(PID.TID 0000.0001) EXF_SET_FLD:   first, changed, fac:   F   F    0.49180327868852458
(PID.TID 0000.0001) EXF_SET_FLD: processing field "swdown",  file: fsh.labsea1979
(PID.TID 0000.0001) EXF_SET_FLD:   myIter, count0, count1:         6      1      2
(PID.TID 0000.0001) EXF_SET_FLD:   first, changed, fac:   F   F    0.49180327868852458
(PID.TID 0000.0001) EXF_SET_FLD: processing field "lwdown",  file: flo.labsea1979
(PID.TID 0000.0001) EXF_SET_FLD:   myIter, count0, count1:         6      1      2
(PID.TID 0000.0001) EXF_SET_FLD:   first, changed, fac:   F   F    0.49180327868852458
DEBUG_STATS_RL: Uice pre  iter (SEAICE_LSR  1)  min= -1.19106759196614E-02
DEBUG_STATS_RL: Uice pre  iter (SEAICE_LSR  1)  max=  2.40859973799500E-01
DEBUG_STATS_RL: Uice pre  iter (SEAICE_LSR  1) mean=  7.02597534860948E-02
DEBUG_STATS_RL: Uice pre  iter (SEAICE_LSR  1) S.D.=  7.57773428259753E-02
DEBUG_STATS_RL: Vice pre  iter (SEAICE_LSR  1)  min= -1.74132342678207E-01
DEBUG_STATS_RL: Vice pre  iter (SEAICE_LSR  1)  max=  9.66358613081399E-02
DEBUG_STATS_RL: Vice pre  iter (SEAICE_LSR  1) mean= -4.28491368242810E-02
DEBUG_STATS_RL: Vice pre  iter (SEAICE_LSR  1) S.D.=  5.63763392291550E-02
DEBUG_STATS_RL: Uice pre  iter (SEAICE_LSR  2)  min= -1.30564509125757E-02
DEBUG_STATS_RL: Uice pre  iter (SEAICE_LSR  2)  max=  2.47901039964918E-01
DEBUG_STATS_RL: Uice pre  iter (SEAICE_LSR  2) mean=  6.80717062410296E-02
DEBUG_STATS_RL: Uice pre  iter (SEAICE_LSR  2) S.D.=  7.48548542542582E-02
DEBUG_STATS_RL: Vice pre  iter (SEAICE_LSR  2)  min= -1.68314830999124E-01
DEBUG_STATS_RL: Vice pre  iter (SEAICE_LSR  2)  max=  8.87290074915900E-02
DEBUG_STATS_RL: Vice pre  iter (SEAICE_LSR  2) mean= -4.61137817409455E-02
DEBUG_STATS_RL: Vice pre  iter (SEAICE_LSR  2) S.D.=  5.74118961796309E-02
DEBUG_STATS_RL:                EtaN (DYNAMICS)  min= -1.25510578434462E-01
DEBUG_STATS_RL:                EtaN (DYNAMICS)  max=  3.29809109672203E-01
DEBUG_STATS_RL:                EtaN (DYNAMICS) mean= -3.51679735470302E-03
DEBUG_STATS_RL:                EtaN (DYNAMICS) S.D.=  7.24267737471536E-02
DEBUG_STATS_RL:                Uvel (DYNAMICS)  min= -3.59096386964102E-02
DEBUG_STATS_RL:                Uvel (DYNAMICS)  max=  1.01288605318195E-01
DEBUG_STATS_RL:                Uvel (DYNAMICS) mean=  5.06442107691443E-03
DEBUG_STATS_RL:                Uvel (DYNAMICS) S.D.=  1.40087544095653E-02
DEBUG_STATS_RL:                Vvel (DYNAMICS)  min= -1.10756263988798E-01
DEBUG_STATS_RL:                Vvel (DYNAMICS)  max=  7.07208418107748E-02
DEBUG_STATS_RL:                Vvel (DYNAMICS) mean= -2.17557054828444E-03
DEBUG_STATS_RL:                Vvel (DYNAMICS) S.D.=  1.80912833066385E-02
DEBUG_STATS_RL:                Wvel (DYNAMICS)  min= -2.43811460414301E-04
DEBUG_STATS_RL:                Wvel (DYNAMICS)  max=  3.28816353261790E-04
DEBUG_STATS_RL:                Wvel (DYNAMICS) mean= -1.37923543342930E-07
DEBUG_STATS_RL:                Wvel (DYNAMICS) S.D.=  2.75149300864468E-05
DEBUG_STATS_RL:               Theta (DYNAMICS)  min= -1.96015217723737E+00
DEBUG_STATS_RL:               Theta (DYNAMICS)  max=  1.32512671183370E+01
DEBUG_STATS_RL:               Theta (DYNAMICS) mean=  2.41531606071968E+00
DEBUG_STATS_RL:               Theta (DYNAMICS) S.D.=  2.57483151675911E+00
DEBUG_STATS_RL:                Salt (DYNAMICS)  min=  2.76290307531745E+01
DEBUG_STATS_RL:                Salt (DYNAMICS)  max=  3.54512307060718E+01
DEBUG_STATS_RL:                Salt (DYNAMICS) mean=  3.39367446276238E+01
DEBUG_STATS_RL:                Salt (DYNAMICS) S.D.=  1.15382313156805E+00
DEBUG_STATS_RL:                  Gu (DYNAMICS)  min= -4.45840116890899E-02
DEBUG_STATS_RL:                  Gu (DYNAMICS)  max=  1.13252404039500E-01
DEBUG_STATS_RL:                  Gu (DYNAMICS) mean=  3.02808241161229E-03
DEBUG_STATS_RL:                  Gu (DYNAMICS) S.D.=  1.59063121238893E-02
DEBUG_STATS_RL:                  Gv (DYNAMICS)  min= -1.34630447324912E-01
DEBUG_STATS_RL:                  Gv (DYNAMICS)  max=  4.81174890382835E-02
DEBUG_STATS_RL:                  Gv (DYNAMICS) mean= -7.41639241987065E-03
DEBUG_STATS_RL:                  Gv (DYNAMICS) S.D.=  1.85638365104700E-02
DEBUG_STATS_RL:               GuNm1 (DYNAMICS)  min= -3.33271036892904E-07
DEBUG_STATS_RL:               GuNm1 (DYNAMICS)  max=  1.87479663955270E-07
DEBUG_STATS_RL:               GuNm1 (DYNAMICS) mean= -3.31200046769952E-09
DEBUG_STATS_RL:               GuNm1 (DYNAMICS) S.D.=  4.08419141881971E-08
DEBUG_STATS_RL:               GvNm1 (DYNAMICS)  min= -2.04912919624491E-07
DEBUG_STATS_RL:               GvNm1 (DYNAMICS)  max=  1.56710147054438E-07
DEBUG_STATS_RL:               GvNm1 (DYNAMICS) mean= -8.96938696731291E-10
DEBUG_STATS_RL:               GvNm1 (DYNAMICS) S.D.=  3.95873164870957E-08
DEBUG_STATS_RL:               GtNm1 (DYNAMICS)  min=  0.00000000000000E+00
DEBUG_STATS_RL:               GtNm1 (DYNAMICS)  max=  0.00000000000000E+00
DEBUG_STATS_RL:               GtNm1 (DYNAMICS) mean=  0.00000000000000E+00
DEBUG_STATS_RL:               GtNm1 (DYNAMICS) S.D.=  0.00000000000000E+00
DEBUG_STATS_RL:               GsNm1 (DYNAMICS)  min=  0.00000000000000E+00
DEBUG_STATS_RL:               GsNm1 (DYNAMICS)  max=  0.00000000000000E+00
DEBUG_STATS_RL:               GsNm1 (DYNAMICS) mean=  0.00000000000000E+00
DEBUG_STATS_RL:               GsNm1 (DYNAMICS) S.D.=  0.00000000000000E+00
DEBUG_STATS_RL:    cg2d_b (SOLVE_FOR_PRESSURE)  min= -7.43169656861245E+03
DEBUG_STATS_RL:    cg2d_b (SOLVE_FOR_PRESSURE)  max=  2.17598296942634E+03
DEBUG_STATS_RL:    cg2d_b (SOLVE_FOR_PRESSURE) mean=  6.96331881044898E-13
DEBUG_STATS_RL:    cg2d_b (SOLVE_FOR_PRESSURE) S.D.=  9.02750100849735E+02
 cg2d: Sum(rhs),rhsMax =   1.41067713066434E-14  1.19612709187932E+00
DEBUG_STATS_RL:    cg2d_x (SOLVE_FOR_PRESSURE)  min= -1.18794061890904E+00
DEBUG_STATS_RL:    cg2d_x (SOLVE_FOR_PRESSURE)  max=  3.24511049575726E+00
DEBUG_STATS_RL:    cg2d_x (SOLVE_FOR_PRESSURE) mean= -3.88654400025836E-02
DEBUG_STATS_RL:    cg2d_x (SOLVE_FOR_PRESSURE) S.D.=  6.81167535252279E-01
DEBUG_STATS_RL:          Uvel (THERMODYNAMICS)  min= -3.57601727936033E-02
DEBUG_STATS_RL:          Uvel (THERMODYNAMICS)  max=  1.04775938290593E-01
DEBUG_STATS_RL:          Uvel (THERMODYNAMICS) mean=  4.39725630125182E-03
DEBUG_STATS_RL:          Uvel (THERMODYNAMICS) S.D.=  1.39028540310335E-02
DEBUG_STATS_RL:          Vvel (THERMODYNAMICS)  min= -1.27584762387762E-01
DEBUG_STATS_RL:          Vvel (THERMODYNAMICS)  max=  6.50083276838834E-02
DEBUG_STATS_RL:          Vvel (THERMODYNAMICS) mean= -3.36887217582008E-03
DEBUG_STATS_RL:          Vvel (THERMODYNAMICS) S.D.=  1.85890275650197E-02
DEBUG_STATS_RL:          Wvel (THERMODYNAMICS)  min= -2.67954696014334E-04
DEBUG_STATS_RL:          Wvel (THERMODYNAMICS)  max=  3.29804232734301E-04
DEBUG_STATS_RL:          Wvel (THERMODYNAMICS) mean= -4.85616750767614E-08
DEBUG_STATS_RL:          Wvel (THERMODYNAMICS) S.D.=  2.84164537902804E-05
DEBUG_STATS_RL:         Theta (THERMODYNAMICS)  min= -1.95963016104374E+00
DEBUG_STATS_RL:         Theta (THERMODYNAMICS)  max=  1.32396343409662E+01
DEBUG_STATS_RL:         Theta (THERMODYNAMICS) mean=  2.41506584132490E+00
DEBUG_STATS_RL:         Theta (THERMODYNAMICS) S.D.=  2.57443936967394E+00
DEBUG_STATS_RL:          Salt (THERMODYNAMICS)  min=  2.76338867569799E+01
DEBUG_STATS_RL:          Salt (THERMODYNAMICS)  max=  3.54511617149686E+01
DEBUG_STATS_RL:          Salt (THERMODYNAMICS) mean=  3.39367496241626E+01
DEBUG_STATS_RL:          Salt (THERMODYNAMICS) S.D.=  1.15359229307638E+00
DEBUG_STATS_RL:         GtNm1 (THERMODYNAMICS)  min=  0.00000000000000E+00
DEBUG_STATS_RL:         GtNm1 (THERMODYNAMICS)  max=  0.00000000000000E+00
DEBUG_STATS_RL:         GtNm1 (THERMODYNAMICS) mean=  0.00000000000000E+00
DEBUG_STATS_RL:         GtNm1 (THERMODYNAMICS) S.D.=  0.00000000000000E+00
DEBUG_STATS_RL:         GsNm1 (THERMODYNAMICS)  min=  0.00000000000000E+00
DEBUG_STATS_RL:         GsNm1 (THERMODYNAMICS)  max=  0.00000000000000E+00
DEBUG_STATS_RL:         GsNm1 (THERMODYNAMICS) mean=  0.00000000000000E+00
DEBUG_STATS_RL:         GsNm1 (THERMODYNAMICS) S.D.=  0.00000000000000E+00
(PID.TID 0000.0001)  MDS_WRITE_FIELD: it,rec,kS,kL,kH=       1     3   1   1   1 file=m_sst_step.0000000001
(PID.TID 0000.0001)  MDS_READ_FIELD: opening global file: xx_atemp.effective.0000000001.data
(PID.TID 0000.0001) EXF_SET_FLD: processing field "climsss",  file: SSS_monthly.labsea1979
(PID.TID 0000.0001) EXF_SET_FLD:   myIter, count0, count1:         7      1      2
(PID.TID 0000.0001) EXF_SET_FLD:   first, changed, fac:   F   F    0.49043715846994540
(PID.TID 0000.0001) EXF_SET_FLD: processing field "uwind",  file: u10m.labsea1979
(PID.TID 0000.0001) EXF_SET_FLD:   myIter, count0, count1:         7      1      2
(PID.TID 0000.0001) EXF_SET_FLD:   first, changed, fac:   F   F    0.49043715846994540
(PID.TID 0000.0001) EXF_SET_FLD: processing field "vwind",  file: v10m.labsea1979
(PID.TID 0000.0001) EXF_SET_FLD:   myIter, count0, count1:         7      1      2
(PID.TID 0000.0001) EXF_SET_FLD:   first, changed, fac:   F   F    0.49043715846994540
(PID.TID 0000.0001) EXF_SET_FLD: processing field "atemp",  file: tair.labsea1979
(PID.TID 0000.0001) EXF_SET_FLD:   myIter, count0, count1:         7      1      2
(PID.TID 0000.0001) EXF_SET_FLD:   first, changed, fac:   F   F    0.49043715846994540
(PID.TID 0000.0001) EXF_SET_FLD: processing field "aqh",  file: qa.labsea1979
(PID.TID 0000.0001) EXF_SET_FLD:   myIter, count0, count1:         7      1      2
(PID.TID 0000.0001) EXF_SET_FLD:   first, changed, fac:   F   F    0.49043715846994540
(PID.TID 0000.0001) EXF_SET_FLD: processing field "precip",  file: prate.labsea1979
(PID.TID 0000.0001) EXF_SET_FLD:   myIter, count0, count1:         7      1      2
(PID.TID 0000.0001) EXF_SET_FLD:   first, changed, fac:   F   F    0.49043715846994540
(PID.TID 0000.0001) EXF_SET_FLD: processing field "swdown",  file: fsh.labsea1979
(PID.TID 0000.0001) EXF_SET_FLD:   myIter, count0, count1:         7      1      2
(PID.TID 0000.0001) EXF_SET_FLD:   first, changed, fac:   F   F    0.49043715846994540
(PID.TID 0000.0001) EXF_SET_FLD: processing field "lwdown",  file: flo.labsea1979
(PID.TID 0000.0001) EXF_SET_FLD:   myIter, count0, count1:         7      1      2
(PID.TID 0000.0001) EXF_SET_FLD:   first, changed, fac:   F   F    0.49043715846994540
DEBUG_STATS_RL: Uice pre  iter (SEAICE_LSR  1)  min= -1.54549194525866E-02
DEBUG_STATS_RL: Uice pre  iter (SEAICE_LSR  1)  max=  2.53524286292195E-01
DEBUG_STATS_RL: Uice pre  iter (SEAICE_LSR  1) mean=  6.68799365320119E-02
DEBUG_STATS_RL: Uice pre  iter (SEAICE_LSR  1) S.D.=  7.54478852962580E-02
DEBUG_STATS_RL: Vice pre  iter (SEAICE_LSR  1)  min= -1.68373183021268E-01
DEBUG_STATS_RL: Vice pre  iter (SEAICE_LSR  1)  max=  8.10859368452303E-02
DEBUG_STATS_RL: Vice pre  iter (SEAICE_LSR  1) mean= -4.94905385200998E-02
DEBUG_STATS_RL: Vice pre  iter (SEAICE_LSR  1) S.D.=  5.89447951203408E-02
DEBUG_STATS_RL: Uice pre  iter (SEAICE_LSR  2)  min= -1.68104910559763E-02
DEBUG_STATS_RL: Uice pre  iter (SEAICE_LSR  2)  max=  2.51381266335640E-01
DEBUG_STATS_RL: Uice pre  iter (SEAICE_LSR  2) mean=  6.26056742417120E-02
DEBUG_STATS_RL: Uice pre  iter (SEAICE_LSR  2) S.D.=  7.23215228186589E-02
DEBUG_STATS_RL: Vice pre  iter (SEAICE_LSR  2)  min= -1.70146515867233E-01
DEBUG_STATS_RL: Vice pre  iter (SEAICE_LSR  2)  max=  7.01571636850258E-02
DEBUG_STATS_RL: Vice pre  iter (SEAICE_LSR  2) mean= -5.12009841743803E-02
DEBUG_STATS_RL: Vice pre  iter (SEAICE_LSR  2) S.D.=  5.84735965012139E-02
DEBUG_STATS_RL:                EtaN (DYNAMICS)  min= -1.21025777222894E-01
DEBUG_STATS_RL:                EtaN (DYNAMICS)  max=  3.30607450971643E-01
DEBUG_STATS_RL:                EtaN (DYNAMICS) mean= -3.95955825447081E-03
DEBUG_STATS_RL:                EtaN (DYNAMICS) S.D.=  6.93964235759688E-02
DEBUG_STATS_RL:                Uvel (DYNAMICS)  min= -3.57601727936033E-02
DEBUG_STATS_RL:                Uvel (DYNAMICS)  max=  1.04775938290593E-01
DEBUG_STATS_RL:                Uvel (DYNAMICS) mean=  4.39725630125182E-03
DEBUG_STATS_RL:                Uvel (DYNAMICS) S.D.=  1.39028540310335E-02
DEBUG_STATS_RL:                Vvel (DYNAMICS)  min= -1.27584762387762E-01
DEBUG_STATS_RL:                Vvel (DYNAMICS)  max=  6.50083276838834E-02
DEBUG_STATS_RL:                Vvel (DYNAMICS) mean= -3.36887217582008E-03
DEBUG_STATS_RL:                Vvel (DYNAMICS) S.D.=  1.85890275650197E-02
DEBUG_STATS_RL:                Wvel (DYNAMICS)  min= -2.67954696014334E-04
DEBUG_STATS_RL:                Wvel (DYNAMICS)  max=  3.29804232734301E-04
DEBUG_STATS_RL:                Wvel (DYNAMICS) mean= -4.85616750767614E-08
DEBUG_STATS_RL:                Wvel (DYNAMICS) S.D.=  2.84164537902804E-05
DEBUG_STATS_RL:               Theta (DYNAMICS)  min= -1.95963016104374E+00
DEBUG_STATS_RL:               Theta (DYNAMICS)  max=  1.32396343409662E+01
DEBUG_STATS_RL:               Theta (DYNAMICS) mean=  2.41506584132490E+00
DEBUG_STATS_RL:               Theta (DYNAMICS) S.D.=  2.57443936967394E+00
DEBUG_STATS_RL:                Salt (DYNAMICS)  min=  2.76338867569799E+01
DEBUG_STATS_RL:                Salt (DYNAMICS)  max=  3.54511617149686E+01
DEBUG_STATS_RL:                Salt (DYNAMICS) mean=  3.39367496241626E+01
DEBUG_STATS_RL:                Salt (DYNAMICS) S.D.=  1.15359229307638E+00
DEBUG_STATS_RL:                  Gu (DYNAMICS)  min= -5.18639383664093E-02
DEBUG_STATS_RL:                  Gu (DYNAMICS)  max=  1.08500044377568E-01
DEBUG_STATS_RL:                  Gu (DYNAMICS) mean=  2.22152146945400E-03
DEBUG_STATS_RL:                  Gu (DYNAMICS) S.D.=  1.62488741545267E-02
DEBUG_STATS_RL:                  Gv (DYNAMICS)  min= -1.40216393355448E-01
DEBUG_STATS_RL:                  Gv (DYNAMICS)  max=  4.07135165171732E-02
DEBUG_STATS_RL:                  Gv (DYNAMICS) mean= -7.84361289825861E-03
DEBUG_STATS_RL:                  Gv (DYNAMICS) S.D.=  1.86090017356288E-02
DEBUG_STATS_RL:               GuNm1 (DYNAMICS)  min= -3.48473911940034E-07
DEBUG_STATS_RL:               GuNm1 (DYNAMICS)  max=  1.90416017948021E-07
DEBUG_STATS_RL:               GuNm1 (DYNAMICS) mean= -3.12306477014106E-09
DEBUG_STATS_RL:               GuNm1 (DYNAMICS) S.D.=  4.09417632400134E-08
DEBUG_STATS_RL:               GvNm1 (DYNAMICS)  min= -2.15359173477236E-07
DEBUG_STATS_RL:               GvNm1 (DYNAMICS)  max=  1.82438063100004E-07
DEBUG_STATS_RL:               GvNm1 (DYNAMICS) mean= -6.53519601921780E-10
DEBUG_STATS_RL:               GvNm1 (DYNAMICS) S.D.=  4.16452354556348E-08
DEBUG_STATS_RL:               GtNm1 (DYNAMICS)  min=  0.00000000000000E+00
DEBUG_STATS_RL:               GtNm1 (DYNAMICS)  max=  0.00000000000000E+00
DEBUG_STATS_RL:               GtNm1 (DYNAMICS) mean=  0.00000000000000E+00
DEBUG_STATS_RL:               GtNm1 (DYNAMICS) S.D.=  0.00000000000000E+00
DEBUG_STATS_RL:               GsNm1 (DYNAMICS)  min=  0.00000000000000E+00
DEBUG_STATS_RL:               GsNm1 (DYNAMICS)  max=  0.00000000000000E+00
DEBUG_STATS_RL:               GsNm1 (DYNAMICS) mean=  0.00000000000000E+00
DEBUG_STATS_RL:               GsNm1 (DYNAMICS) S.D.=  0.00000000000000E+00
DEBUG_STATS_RL:    cg2d_b (SOLVE_FOR_PRESSURE)  min= -7.37985604508148E+03
DEBUG_STATS_RL:    cg2d_b (SOLVE_FOR_PRESSURE)  max=  2.18366607280435E+03
DEBUG_STATS_RL:    cg2d_b (SOLVE_FOR_PRESSURE) mean=  6.18645875268461E-13
DEBUG_STATS_RL:    cg2d_b (SOLVE_FOR_PRESSURE) S.D.=  8.98963545839594E+02
 cg2d: Sum(rhs),rhsMax =   1.34267597040605E-14  1.18778339080378E+00
DEBUG_STATS_RL:    cg2d_x (SOLVE_FOR_PRESSURE)  min= -1.13929441834640E+00
DEBUG_STATS_RL:    cg2d_x (SOLVE_FOR_PRESSURE)  max=  3.20616731162253E+00
DEBUG_STATS_RL:    cg2d_x (SOLVE_FOR_PRESSURE) mean= -4.15672442271453E-02
DEBUG_STATS_RL:    cg2d_x (SOLVE_FOR_PRESSURE) S.D.=  6.51074617232215E-01
DEBUG_STATS_RL:          Uvel (THERMODYNAMICS)  min= -4.34802359621465E-02
DEBUG_STATS_RL:          Uvel (THERMODYNAMICS)  max=  9.99752242998808E-02
DEBUG_STATS_RL:          Uvel (THERMODYNAMICS) mean=  3.48264152589957E-03
DEBUG_STATS_RL:          Uvel (THERMODYNAMICS) S.D.=  1.35343125506116E-02
DEBUG_STATS_RL:          Vvel (THERMODYNAMICS)  min= -1.33439207289254E-01
DEBUG_STATS_RL:          Vvel (THERMODYNAMICS)  max=  5.60260700766945E-02
DEBUG_STATS_RL:          Vvel (THERMODYNAMICS) mean= -4.02696574872961E-03
DEBUG_STATS_RL:          Vvel (THERMODYNAMICS) S.D.=  1.80273334212797E-02
DEBUG_STATS_RL:          Wvel (THERMODYNAMICS)  min= -2.73348162229354E-04
DEBUG_STATS_RL:          Wvel (THERMODYNAMICS)  max=  3.13596923283671E-04
DEBUG_STATS_RL:          Wvel (THERMODYNAMICS) mean=  4.73709411313520E-08
DEBUG_STATS_RL:          Wvel (THERMODYNAMICS) S.D.=  2.82661454219204E-05
DEBUG_STATS_RL:         Theta (THERMODYNAMICS)  min= -1.95943609422387E+00
DEBUG_STATS_RL:         Theta (THERMODYNAMICS)  max=  1.32225113409295E+01
DEBUG_STATS_RL:         Theta (THERMODYNAMICS) mean=  2.41480286619418E+00
DEBUG_STATS_RL:         Theta (THERMODYNAMICS) S.D.=  2.57398860030337E+00
DEBUG_STATS_RL:          Salt (THERMODYNAMICS)  min=  2.76387468555707E+01
DEBUG_STATS_RL:          Salt (THERMODYNAMICS)  max=  3.54510358217953E+01
DEBUG_STATS_RL:          Salt (THERMODYNAMICS) mean=  3.39367601804946E+01
DEBUG_STATS_RL:          Salt (THERMODYNAMICS) S.D.=  1.15334890349729E+00
DEBUG_STATS_RL:         GtNm1 (THERMODYNAMICS)  min=  0.00000000000000E+00
DEBUG_STATS_RL:         GtNm1 (THERMODYNAMICS)  max=  0.00000000000000E+00
DEBUG_STATS_RL:         GtNm1 (THERMODYNAMICS) mean=  0.00000000000000E+00
DEBUG_STATS_RL:         GtNm1 (THERMODYNAMICS) S.D.=  0.00000000000000E+00
DEBUG_STATS_RL:         GsNm1 (THERMODYNAMICS)  min=  0.00000000000000E+00
DEBUG_STATS_RL:         GsNm1 (THERMODYNAMICS)  max=  0.00000000000000E+00
DEBUG_STATS_RL:         GsNm1 (THERMODYNAMICS) mean=  0.00000000000000E+00
DEBUG_STATS_RL:         GsNm1 (THERMODYNAMICS) S.D.=  0.00000000000000E+00
(PID.TID 0000.0001)  MDS_WRITE_FIELD: it,rec,kS,kL,kH=       1     4   1   1   1 file=m_sst_step.0000000001
(PID.TID 0000.0001)  MDS_READ_FIELD: opening global file: xx_atemp.effective.0000000001.data
(PID.TID 0000.0001) EXF_SET_FLD: processing field "climsss",  file: SSS_monthly.labsea1979
(PID.TID 0000.0001) EXF_SET_FLD:   myIter, count0, count1:         8      1      2
(PID.TID 0000.0001) EXF_SET_FLD:   first, changed, fac:   F   F    0.48907103825136611
(PID.TID 0000.0001) EXF_SET_FLD: processing field "uwind",  file: u10m.labsea1979
(PID.TID 0000.0001) EXF_SET_FLD:   myIter, count0, count1:         8      1      2
(PID.TID 0000.0001) EXF_SET_FLD:   first, changed, fac:   F   F    0.48907103825136611
(PID.TID 0000.0001) EXF_SET_FLD: processing field "vwind",  file: v10m.labsea1979
(PID.TID 0000.0001) EXF_SET_FLD:   myIter, count0, count1:         8      1      2
(PID.TID 0000.0001) EXF_SET_FLD:   first, changed, fac:   F   F    0.48907103825136611
(PID.TID 0000.0001) EXF_SET_FLD: processing field "atemp",  file: tair.labsea1979
(PID.TID 0000.0001) EXF_SET_FLD:   myIter, count0, count1:         8      1      2
(PID.TID 0000.0001) EXF_SET_FLD:   first, changed, fac:   F   F    0.48907103825136611
(PID.TID 0000.0001) EXF_SET_FLD: processing field "aqh",  file: qa.labsea1979
(PID.TID 0000.0001) EXF_SET_FLD:   myIter, count0, count1:         8      1      2
(PID.TID 0000.0001) EXF_SET_FLD:   first, changed, fac:   F   F    0.48907103825136611
(PID.TID 0000.0001) EXF_SET_FLD: processing field "precip",  file: prate.labsea1979
(PID.TID 0000.0001) EXF_SET_FLD:   myIter, count0, count1:         8      1      2
(PID.TID 0000.0001) EXF_SET_FLD:   first, changed, fac:   F   F    0.48907103825136611
(PID.TID 0000.0001) EXF_SET_FLD: processing field "swdown",  file: fsh.labsea1979
(PID.TID 0000.0001) EXF_SET_FLD:   myIter, count0, count1:         8      1      2
(PID.TID 0000.0001) EXF_SET_FLD:   first, changed, fac:   F   F    0.48907103825136611
(PID.TID 0000.0001) EXF_SET_FLD: processing field "lwdown",  file: flo.labsea1979
(PID.TID 0000.0001) EXF_SET_FLD:   myIter, count0, count1:         8      1      2
(PID.TID 0000.0001) EXF_SET_FLD:   first, changed, fac:   F   F    0.48907103825136611
DEBUG_STATS_RL: Uice pre  iter (SEAICE_LSR  1)  min= -1.95687208100102E-02
DEBUG_STATS_RL: Uice pre  iter (SEAICE_LSR  1)  max=  2.56695252608154E-01
DEBUG_STATS_RL: Uice pre  iter (SEAICE_LSR  1) mean=  6.10102626008752E-02
DEBUG_STATS_RL: Uice pre  iter (SEAICE_LSR  1) S.D.=  7.26515133443026E-02
DEBUG_STATS_RL: Vice pre  iter (SEAICE_LSR  1)  min= -1.74351841639993E-01
DEBUG_STATS_RL: Vice pre  iter (SEAICE_LSR  1)  max=  6.17815719868620E-02
DEBUG_STATS_RL: Vice pre  iter (SEAICE_LSR  1) mean= -5.34332922103127E-02
DEBUG_STATS_RL: Vice pre  iter (SEAICE_LSR  1) S.D.=  5.91879685811095E-02
DEBUG_STATS_RL: Uice pre  iter (SEAICE_LSR  2)  min= -2.10631196463131E-02
DEBUG_STATS_RL: Uice pre  iter (SEAICE_LSR  2)  max=  2.47741110498678E-01
DEBUG_STATS_RL: Uice pre  iter (SEAICE_LSR  2) mean=  5.58563099525574E-02
DEBUG_STATS_RL: Uice pre  iter (SEAICE_LSR  2) S.D.=  6.83562873807025E-02
DEBUG_STATS_RL: Vice pre  iter (SEAICE_LSR  2)  min= -1.71270231909308E-01
DEBUG_STATS_RL: Vice pre  iter (SEAICE_LSR  2)  max=  5.00408736690829E-02
DEBUG_STATS_RL: Vice pre  iter (SEAICE_LSR  2) mean= -5.35471708937630E-02
DEBUG_STATS_RL: Vice pre  iter (SEAICE_LSR  2) S.D.=  5.75117440524867E-02
DEBUG_STATS_RL:                EtaN (DYNAMICS)  min= -1.16069768363258E-01
DEBUG_STATS_RL:                EtaN (DYNAMICS)  max=  3.26639972250553E-01
DEBUG_STATS_RL:                EtaN (DYNAMICS) mean= -4.23481440025525E-03
DEBUG_STATS_RL:                EtaN (DYNAMICS) S.D.=  6.63305979494085E-02
DEBUG_STATS_RL:                Uvel (DYNAMICS)  min= -4.34802359621465E-02
DEBUG_STATS_RL:                Uvel (DYNAMICS)  max=  9.99752242998808E-02
DEBUG_STATS_RL:                Uvel (DYNAMICS) mean=  3.48264152589957E-03
DEBUG_STATS_RL:                Uvel (DYNAMICS) S.D.=  1.35343125506116E-02
DEBUG_STATS_RL:                Vvel (DYNAMICS)  min= -1.33439207289254E-01
DEBUG_STATS_RL:                Vvel (DYNAMICS)  max=  5.60260700766945E-02
DEBUG_STATS_RL:                Vvel (DYNAMICS) mean= -4.02696574872961E-03
DEBUG_STATS_RL:                Vvel (DYNAMICS) S.D.=  1.80273334212797E-02
DEBUG_STATS_RL:                Wvel (DYNAMICS)  min= -2.73348162229354E-04
DEBUG_STATS_RL:                Wvel (DYNAMICS)  max=  3.13596923283671E-04
DEBUG_STATS_RL:                Wvel (DYNAMICS) mean=  4.73709411313520E-08
DEBUG_STATS_RL:                Wvel (DYNAMICS) S.D.=  2.82661454219204E-05
DEBUG_STATS_RL:               Theta (DYNAMICS)  min= -1.95943609422387E+00
DEBUG_STATS_RL:               Theta (DYNAMICS)  max=  1.32225113409295E+01
DEBUG_STATS_RL:               Theta (DYNAMICS) mean=  2.41480286619418E+00
DEBUG_STATS_RL:               Theta (DYNAMICS) S.D.=  2.57398860030337E+00
DEBUG_STATS_RL:                Salt (DYNAMICS)  min=  2.76387468555707E+01
DEBUG_STATS_RL:                Salt (DYNAMICS)  max=  3.54510358217953E+01
DEBUG_STATS_RL:                Salt (DYNAMICS) mean=  3.39367601804946E+01
DEBUG_STATS_RL:                Salt (DYNAMICS) S.D.=  1.15334890349729E+00
DEBUG_STATS_RL:                  Gu (DYNAMICS)  min= -5.98368153074020E-02
DEBUG_STATS_RL:                  Gu (DYNAMICS)  max=  9.68873121299251E-02
DEBUG_STATS_RL:                  Gu (DYNAMICS) mean=  1.30194972947503E-03
DEBUG_STATS_RL:                  Gu (DYNAMICS) S.D.=  1.61566615235326E-02
DEBUG_STATS_RL:                  Gv (DYNAMICS)  min= -1.36271217267994E-01
DEBUG_STATS_RL:                  Gv (DYNAMICS)  max=  3.83573237348583E-02
DEBUG_STATS_RL:                  Gv (DYNAMICS) mean= -7.71950831958569E-03
DEBUG_STATS_RL:                  Gv (DYNAMICS) S.D.=  1.77533563667874E-02
DEBUG_STATS_RL:               GuNm1 (DYNAMICS)  min= -3.40955168137046E-07
DEBUG_STATS_RL:               GuNm1 (DYNAMICS)  max=  1.82641400821284E-07
DEBUG_STATS_RL:               GuNm1 (DYNAMICS) mean= -2.79196714442664E-09
DEBUG_STATS_RL:               GuNm1 (DYNAMICS) S.D.=  4.07453533304239E-08
DEBUG_STATS_RL:               GvNm1 (DYNAMICS)  min= -2.14559263714299E-07
DEBUG_STATS_RL:               GvNm1 (DYNAMICS)  max=  1.94148824775153E-07
DEBUG_STATS_RL:               GvNm1 (DYNAMICS) mean= -4.04169206802268E-10
DEBUG_STATS_RL:               GvNm1 (DYNAMICS) S.D.=  4.19222729579498E-08
DEBUG_STATS_RL:               GtNm1 (DYNAMICS)  min=  0.00000000000000E+00
DEBUG_STATS_RL:               GtNm1 (DYNAMICS)  max=  0.00000000000000E+00
DEBUG_STATS_RL:               GtNm1 (DYNAMICS) mean=  0.00000000000000E+00
DEBUG_STATS_RL:               GtNm1 (DYNAMICS) S.D.=  0.00000000000000E+00
DEBUG_STATS_RL:               GsNm1 (DYNAMICS)  min=  0.00000000000000E+00
DEBUG_STATS_RL:               GsNm1 (DYNAMICS)  max=  0.00000000000000E+00
DEBUG_STATS_RL:               GsNm1 (DYNAMICS) mean=  0.00000000000000E+00
DEBUG_STATS_RL:               GsNm1 (DYNAMICS) S.D.=  0.00000000000000E+00
DEBUG_STATS_RL:    cg2d_b (SOLVE_FOR_PRESSURE)  min= -7.29975929937793E+03
DEBUG_STATS_RL:    cg2d_b (SOLVE_FOR_PRESSURE)  max=  2.19478299507054E+03
DEBUG_STATS_RL:    cg2d_b (SOLVE_FOR_PRESSURE) mean= -3.96767063648440E-13
DEBUG_STATS_RL:    cg2d_b (SOLVE_FOR_PRESSURE) S.D.=  8.94146290227710E+02
 cg2d: Sum(rhs),rhsMax =  -6.92501611609941E-15  1.17489186776824E+00
DEBUG_STATS_RL:    cg2d_x (SOLVE_FOR_PRESSURE)  min= -1.08771127617308E+00
DEBUG_STATS_RL:    cg2d_x (SOLVE_FOR_PRESSURE)  max=  3.12128519797376E+00
DEBUG_STATS_RL:    cg2d_x (SOLVE_FOR_PRESSURE) mean= -4.19588396852395E-02
DEBUG_STATS_RL:    cg2d_x (SOLVE_FOR_PRESSURE) S.D.=  6.20262122262901E-01
DEBUG_STATS_RL:          Uvel (THERMODYNAMICS)  min= -5.12375198242059E-02
DEBUG_STATS_RL:          Uvel (THERMODYNAMICS)  max=  8.84896388076339E-02
DEBUG_STATS_RL:          Uvel (THERMODYNAMICS) mean=  2.55769138538291E-03
DEBUG_STATS_RL:          Uvel (THERMODYNAMICS) S.D.=  1.29064693910456E-02
DEBUG_STATS_RL:          Vvel (THERMODYNAMICS)  min= -1.29344604199479E-01
DEBUG_STATS_RL:          Vvel (THERMODYNAMICS)  max=  4.58633296186249E-02
DEBUG_STATS_RL:          Vvel (THERMODYNAMICS) mean= -4.14107843006319E-03
DEBUG_STATS_RL:          Vvel (THERMODYNAMICS) S.D.=  1.66082836245794E-02
DEBUG_STATS_RL:          Wvel (THERMODYNAMICS)  min= -2.60848991809587E-04
DEBUG_STATS_RL:          Wvel (THERMODYNAMICS)  max=  2.85731299794369E-04
DEBUG_STATS_RL:          Wvel (THERMODYNAMICS) mean=  1.36793666178293E-07
DEBUG_STATS_RL:          Wvel (THERMODYNAMICS) S.D.=  2.70580054557619E-05
DEBUG_STATS_RL:         Theta (THERMODYNAMICS)  min= -1.95932886747261E+00
DEBUG_STATS_RL:         Theta (THERMODYNAMICS)  max=  1.32010303660582E+01
DEBUG_STATS_RL:         Theta (THERMODYNAMICS) mean=  2.41452315045422E+00
DEBUG_STATS_RL:         Theta (THERMODYNAMICS) S.D.=  2.57350774067654E+00
DEBUG_STATS_RL:          Salt (THERMODYNAMICS)  min=  2.76435505129419E+01
DEBUG_STATS_RL:          Salt (THERMODYNAMICS)  max=  3.54508660670958E+01
DEBUG_STATS_RL:          Salt (THERMODYNAMICS) mean=  3.39367749828872E+01
DEBUG_STATS_RL:          Salt (THERMODYNAMICS) S.D.=  1.15309738582237E+00
DEBUG_STATS_RL:         GtNm1 (THERMODYNAMICS)  min=  0.00000000000000E+00
DEBUG_STATS_RL:         GtNm1 (THERMODYNAMICS)  max=  0.00000000000000E+00
DEBUG_STATS_RL:         GtNm1 (THERMODYNAMICS) mean=  0.00000000000000E+00
DEBUG_STATS_RL:         GtNm1 (THERMODYNAMICS) S.D.=  0.00000000000000E+00
DEBUG_STATS_RL:         GsNm1 (THERMODYNAMICS)  min=  0.00000000000000E+00
DEBUG_STATS_RL:         GsNm1 (THERMODYNAMICS)  max=  0.00000000000000E+00
DEBUG_STATS_RL:         GsNm1 (THERMODYNAMICS) mean=  0.00000000000000E+00
DEBUG_STATS_RL:         GsNm1 (THERMODYNAMICS) S.D.=  0.00000000000000E+00
(PID.TID 0000.0001) Did not write pickup because writePickupAtEnd = FALSE
(PID.TID 0000.0001)  MDS_WRITE_FIELD: it,rec,kS,kL,kH=       1     5   1   1   1 file=m_sst_step.0000000001
(PID.TID 0000.0001) gencost # 03
(PID.TID 0000.0001)  MDS_READ_FIELD: opening global file: sigma_sst.bin
(PID.TID 0000.0001)  MDS_READ_FIELD: opening global file: m_sst_step.0000000001.data
(PID.TID 0000.0001)  MDS_READ_FIELD: opening global file: labsea_SST_fields_t5
(PID.TID 0000.0001)  MDS_WRITE_FIELD: it,rec,kS,kL,kH=       1     1   1   1   1 file=misfit_sst
(PID.TID 0000.0001)  MDS_READ_FIELD: opening global file: sigma_sst.bin
(PID.TID 0000.0001)  MDS_READ_FIELD: opening global file: m_sst_step.0000000001.data
(PID.TID 0000.0001)  MDS_READ_FIELD: opening global file: labsea_SST_fields_t5
(PID.TID 0000.0001)  MDS_WRITE_FIELD: it,rec,kS,kL,kH=       1     2   1   1   1 file=misfit_sst
(PID.TID 0000.0001)  MDS_READ_FIELD: opening global file: sigma_sst.bin
(PID.TID 0000.0001)  MDS_READ_FIELD: opening global file: m_sst_step.0000000001.data
(PID.TID 0000.0001)  MDS_READ_FIELD: opening global file: labsea_SST_fields_t5
(PID.TID 0000.0001)  MDS_WRITE_FIELD: it,rec,kS,kL,kH=       1     3   1   1   1 file=misfit_sst
(PID.TID 0000.0001)  MDS_READ_FIELD: opening global file: sigma_sst.bin
(PID.TID 0000.0001)  MDS_READ_FIELD: opening global file: m_sst_step.0000000001.data
(PID.TID 0000.0001)  MDS_READ_FIELD: opening global file: labsea_SST_fields_t5
(PID.TID 0000.0001)  MDS_WRITE_FIELD: it,rec,kS,kL,kH=       1     4   1   1   1 file=misfit_sst
(PID.TID 0000.0001)  MDS_READ_FIELD: opening global file: sigma_sst.bin
(PID.TID 0000.0001)  MDS_READ_FIELD: opening global file: m_sst_step.0000000001.data
(PID.TID 0000.0001)  MDS_READ_FIELD: opening global file: labsea_SST_fields_t5
(PID.TID 0000.0001)  MDS_WRITE_FIELD: it,rec,kS,kL,kH=       1     5   1   1   1 file=misfit_sst
(PID.TID 0000.0001)  MDS_READ_FIELD: opening global file: xx_atemp.0000000001.data
(PID.TID 0000.0001)  MDS_READ_FIELD: opening global file: xx_atemp.0000000001.data
(PID.TID 0000.0001)  MDS_READ_FIELD: opening global file: xx_atemp.0000000001.data
(PID.TID 0000.0001)  MDS_READ_FIELD: opening global file: xx_atemp.0000000001.data
(PID.TID 0000.0001)  MDS_READ_FIELD: opening global file: xx_atemp.0000000001.data
(PID.TID 0000.0001)  MDS_READ_FIELD: opening global file: xx_atemp.0000000001.data
(PID.TID 0000.0001)  MDS_READ_FIELD: opening global file: xx_atemp.0000000001.data
(PID.TID 0000.0001)  MDS_READ_FIELD: opening global file: xx_atemp.0000000001.data
(PID.TID 0000.0001)  MDS_READ_FIELD: opening global file: xx_atemp.0000000001.data
(PID.TID 0000.0001)  MDS_READ_FIELD: opening global file: xx_atemp.0000000001.data
(PID.TID 0000.0001)  MDS_READ_FIELD: opening global file: xx_atemp.0000000001.data
 --> f_ice     = 0.000000000000000D+00
 --> f_smrarea = 0.000000000000000D+00
 --> f_smrarea = 0.000000000000000D+00
 --> f_smrarea = 0.000000000000000D+00
(PID.TID 0000.0001)  --> f_gencost = 0.527453128215446D+04 3
(PID.TID 0000.0001)  --> f_gentim2d = 0.243375020010000D+03 1
(PID.TID 0000.0001)  --> fc               = 0.527453128215446D+04
(PID.TID 0000.0001)  cost_Final: final cost function =  0.527453128215446D+04
(PID.TID 0000.0001) 
(PID.TID 0000.0001)              cost function evaluation finished.
(PID.TID 0000.0001) 
(PID.TID 0000.0001)   early fc =  0.000000000000000D+00
(PID.TID 0000.0001)   local fc =  0.527453128215446D+04
(PID.TID 0000.0001)  global fc =  0.527453128215446D+04
(PID.TID 0000.0001) grdchk perturb(+)fc: fcpertplus  =  5.27453128215446E+03
(PID.TID 0000.0001)  MDS_READ_FIELD: opening global file: xx_atemp.0000000001.data
(PID.TID 0000.0001)  MDS_WRITE_FIELD: it,rec,kS,kL,kH=       1     1   1   1   1 file=xx_atemp.0000000001
(PID.TID 0000.0001)  MDS_READ_FIELD: opening global file: xx_atemp.0000000001.data
(PID.TID 0000.0001)  MDS_WRITE_FIELD: it,rec,kS,kL,kH=       1     1   1   1   1 file=xx_atemp.0000000001
(PID.TID 0000.0001)  MDS_READ_META: opening file: pickup.0000000005.meta
(PID.TID 0000.0001)  nRecords = 141 ; filePrec =  64 ; fileIter =         5
(PID.TID 0000.0001)     nDims =   2 , dims:
(PID.TID 0000.0001)    1:  20   1  20
(PID.TID 0000.0001)    2:  16   1  16
(PID.TID 0000.0001)     nFlds =   9 , nFl3D =   6 , fields:
(PID.TID 0000.0001)  >Uvel    < >Vvel    < >Theta   < >Salt    < >GuNm1   < >GvNm1   < >EtaN    < >dEtaHdt < >EtaH    <
(PID.TID 0000.0001) missingVal=  1.00000000000000E+00 ; nTimRec =   1 , timeList:
(PID.TID 0000.0001)   1.800000000000E+04
(PID.TID 0000.0001) READ_MFLDS_3D_RL: read field: "Uvel    ", #   1 in fldList, rec=   1
(PID.TID 0000.0001)  MDS_READ_FIELD: opening global file: pickup.0000000005.data
(PID.TID 0000.0001) READ_MFLDS_3D_RL: read field: "Vvel    ", #   2 in fldList, rec=   2
(PID.TID 0000.0001)  MDS_READ_FIELD: opening global file: pickup.0000000005.data
(PID.TID 0000.0001) READ_MFLDS_3D_RL: read field: "Theta   ", #   3 in fldList, rec=   3
(PID.TID 0000.0001)  MDS_READ_FIELD: opening global file: pickup.0000000005.data
(PID.TID 0000.0001) READ_MFLDS_3D_RL: read field: "Salt    ", #   4 in fldList, rec=   4
(PID.TID 0000.0001)  MDS_READ_FIELD: opening global file: pickup.0000000005.data
(PID.TID 0000.0001) READ_MFLDS_3D_RL: read field: "GuNm1   ", #   5 in fldList, rec=   5
(PID.TID 0000.0001)  MDS_READ_FIELD: opening global file: pickup.0000000005.data
(PID.TID 0000.0001) READ_MFLDS_3D_RL: read field: "GvNm1   ", #   6 in fldList, rec=   6
(PID.TID 0000.0001)  MDS_READ_FIELD: opening global file: pickup.0000000005.data
(PID.TID 0000.0001) READ_MFLDS_3D_RL: read field: "EtaN    ", #   7 in fldList, rec= 139
(PID.TID 0000.0001)  MDS_READ_FIELD: opening global file: pickup.0000000005.data
(PID.TID 0000.0001) READ_MFLDS_CHECK: - normal end ; reset MFLDS file-name: pickup.0000000005
(PID.TID 0000.0001)  MDS_READ_FIELD: opening global file: pickup_cd.0000000005.data
(PID.TID 0000.0001)  MDS_READ_FIELD: opening global file: pickup_cd.0000000005.data
(PID.TID 0000.0001)  MDS_READ_FIELD: opening global file: pickup_cd.0000000005.data
(PID.TID 0000.0001)  MDS_READ_FIELD: opening global file: pickup_cd.0000000005.data
(PID.TID 0000.0001)  MDS_READ_FIELD: opening global file: pickup_cd.0000000005.data
(PID.TID 0000.0001)  MDS_READ_META: opening file: pickup_seaice.0000000005.meta
(PID.TID 0000.0001)  nRecords =  13 ; filePrec =  64 ; fileIter =         5
(PID.TID 0000.0001)     nDims =   2 , dims:
(PID.TID 0000.0001)    1:  20   1  20
(PID.TID 0000.0001)    2:  16   1  16
(PID.TID 0000.0001)     nFlds =   7 , nFl3D =   1 , fields:
(PID.TID 0000.0001)  >siTICES < >siAREA  < >siHEFF  < >siHSNOW < >siHSALT < >siUICE  < >siVICE  <
(PID.TID 0000.0001) missingVal=  1.00000000000000E+00 ; nTimRec =   1 , timeList:
(PID.TID 0000.0001)   1.800000000000E+04
(PID.TID 0000.0001) READ_MFLDS_3D_RL: read field: "siTICES ", #   1 in fldList, rec=   1
(PID.TID 0000.0001)  MDS_READ_FIELD: opening global file: pickup_seaice.0000000005.data
(PID.TID 0000.0001) READ_MFLDS_3D_RL: read field: "siAREA  ", #   2 in fldList, rec=   8
(PID.TID 0000.0001)  MDS_READ_FIELD: opening global file: pickup_seaice.0000000005.data
(PID.TID 0000.0001) READ_MFLDS_3D_RL: read field: "siHEFF  ", #   3 in fldList, rec=   9
(PID.TID 0000.0001)  MDS_READ_FIELD: opening global file: pickup_seaice.0000000005.data
(PID.TID 0000.0001) READ_MFLDS_3D_RL: read field: "siHSNOW ", #   4 in fldList, rec=  10
(PID.TID 0000.0001)  MDS_READ_FIELD: opening global file: pickup_seaice.0000000005.data
(PID.TID 0000.0001) READ_MFLDS_3D_RL: read field: "siHSALT ", #   5 in fldList, rec=  11
(PID.TID 0000.0001)  MDS_READ_FIELD: opening global file: pickup_seaice.0000000005.data
(PID.TID 0000.0001) READ_MFLDS_3D_RL: read field: "siUICE  ", #   6 in fldList, rec=  12
(PID.TID 0000.0001)  MDS_READ_FIELD: opening global file: pickup_seaice.0000000005.data
(PID.TID 0000.0001) READ_MFLDS_3D_RL: read field: "siVICE  ", #   7 in fldList, rec=  13
(PID.TID 0000.0001)  MDS_READ_FIELD: opening global file: pickup_seaice.0000000005.data
(PID.TID 0000.0001) READ_MFLDS_CHECK: - normal end ; reset MFLDS file-name: pickup_seaice.0000000005
(PID.TID 0000.0001) CTRL_INIT_REC: Getting record indices for xx_atemp
(PID.TID 0000.0001) CTRL_INIT_REC: Record indices for xx_atemp:
(PID.TID 0000.0001) CTRL_INIT_REC: startrec =          6, endrec =         11
(PID.TID 0000.0001)  MDS_READ_FIELD: opening global file: xx_atemp.0000000001.data
(PID.TID 0000.0001)  MDS_WRITE_FIELD: it,rec,kS,kL,kH=       1     1   1   1   1 file=xx_atemp.effective.0000000001
(PID.TID 0000.0001)  MDS_READ_FIELD: opening global file: xx_atemp.0000000001.data
(PID.TID 0000.0001)  MDS_WRITE_FIELD: it,rec,kS,kL,kH=       1     2   1   1   1 file=xx_atemp.effective.0000000001
(PID.TID 0000.0001)  MDS_READ_FIELD: opening global file: xx_atemp.0000000001.data
(PID.TID 0000.0001)  MDS_WRITE_FIELD: it,rec,kS,kL,kH=       1     3   1   1   1 file=xx_atemp.effective.0000000001
(PID.TID 0000.0001)  MDS_READ_FIELD: opening global file: xx_atemp.0000000001.data
(PID.TID 0000.0001)  MDS_WRITE_FIELD: it,rec,kS,kL,kH=       1     4   1   1   1 file=xx_atemp.effective.0000000001
(PID.TID 0000.0001)  MDS_READ_FIELD: opening global file: xx_atemp.0000000001.data
(PID.TID 0000.0001)  MDS_WRITE_FIELD: it,rec,kS,kL,kH=       1     5   1   1   1 file=xx_atemp.effective.0000000001
(PID.TID 0000.0001)  MDS_READ_FIELD: opening global file: xx_atemp.0000000001.data
(PID.TID 0000.0001)  MDS_WRITE_FIELD: it,rec,kS,kL,kH=       1     6   1   1   1 file=xx_atemp.effective.0000000001
(PID.TID 0000.0001)  MDS_READ_FIELD: opening global file: xx_atemp.effective.0000000001.data
(PID.TID 0000.0001)  MDS_READ_FIELD: opening global file: ones_64b.bin
(PID.TID 0000.0001)  MDS_WRITE_FIELD: it,rec,kS,kL,kH=       1     1   1   1   1 file=xx_atemp.effective.0000000001
(PID.TID 0000.0001)  MDS_READ_FIELD: opening global file: xx_atemp.effective.0000000001.data
(PID.TID 0000.0001)  MDS_READ_FIELD: opening global file: ones_64b.bin
(PID.TID 0000.0001)  MDS_WRITE_FIELD: it,rec,kS,kL,kH=       1     2   1   1   1 file=xx_atemp.effective.0000000001
(PID.TID 0000.0001)  MDS_READ_FIELD: opening global file: xx_atemp.effective.0000000001.data
(PID.TID 0000.0001)  MDS_READ_FIELD: opening global file: ones_64b.bin
(PID.TID 0000.0001)  MDS_WRITE_FIELD: it,rec,kS,kL,kH=       1     3   1   1   1 file=xx_atemp.effective.0000000001
(PID.TID 0000.0001)  MDS_READ_FIELD: opening global file: xx_atemp.effective.0000000001.data
(PID.TID 0000.0001)  MDS_READ_FIELD: opening global file: ones_64b.bin
(PID.TID 0000.0001)  MDS_WRITE_FIELD: it,rec,kS,kL,kH=       1     4   1   1   1 file=xx_atemp.effective.0000000001
(PID.TID 0000.0001)  MDS_READ_FIELD: opening global file: xx_atemp.effective.0000000001.data
(PID.TID 0000.0001)  MDS_READ_FIELD: opening global file: ones_64b.bin
(PID.TID 0000.0001)  MDS_WRITE_FIELD: it,rec,kS,kL,kH=       1     5   1   1   1 file=xx_atemp.effective.0000000001
(PID.TID 0000.0001)  MDS_READ_FIELD: opening global file: xx_atemp.effective.0000000001.data
(PID.TID 0000.0001)  MDS_READ_FIELD: opening global file: ones_64b.bin
(PID.TID 0000.0001)  MDS_WRITE_FIELD: it,rec,kS,kL,kH=       1     6   1   1   1 file=xx_atemp.effective.0000000001
(PID.TID 0000.0001) // =======================================================
(PID.TID 0000.0001) // Model current state
(PID.TID 0000.0001) // =======================================================
(PID.TID 0000.0001) 
(PID.TID 0000.0001)  MDS_WRITE_FIELD: it,rec,kS,kL,kH=       1     1   1   1   1 file=m_sst_step.0000000001
(PID.TID 0000.0001)  MDS_READ_FIELD: opening global file: xx_atemp.effective.0000000001.data
(PID.TID 0000.0001)  MDS_READ_FIELD: opening global file: xx_atemp.effective.0000000001.data
(PID.TID 0000.0001) EXF_SET_FLD: processing field "climsss",  file: SSS_monthly.labsea1979
(PID.TID 0000.0001) EXF_SET_FLD:   myIter, count0, count1:         5      1      2
(PID.TID 0000.0001) EXF_SET_FLD:   first, changed, fac:   T   F    0.49316939890710387
(PID.TID 0000.0001) EXF_SET_FLD: field "climsss", it=         5, loading rec=     1
(PID.TID 0000.0001) EXF_SET_FLD:   from file: "SSS_monthly.labsea1979"
(PID.TID 0000.0001)  MDS_READ_FIELD: opening global file: SSS_monthly.labsea1979
(PID.TID 0000.0001) EXF_SET_FLD: field "climsss", it=         5, loading rec=     2
(PID.TID 0000.0001) EXF_SET_FLD:   from file: "SSS_monthly.labsea1979"
(PID.TID 0000.0001)  MDS_READ_FIELD: opening global file: SSS_monthly.labsea1979
(PID.TID 0000.0001) EXF_SET_FLD: processing field "uwind",  file: u10m.labsea1979
(PID.TID 0000.0001) EXF_SET_FLD:   myIter, count0, count1:         5      1      2
(PID.TID 0000.0001) EXF_SET_FLD:   first, changed, fac:   T   F    0.49316939890710387
(PID.TID 0000.0001) EXF_SET_FLD: field "uwind", it=         5, loading rec=     1
(PID.TID 0000.0001) EXF_SET_FLD:   from file: "u10m.labsea1979"
(PID.TID 0000.0001)  MDS_READ_FIELD: opening global file: u10m.labsea1979
(PID.TID 0000.0001) EXF_SET_FLD: field "uwind", it=         5, loading rec=     2
(PID.TID 0000.0001) EXF_SET_FLD:   from file: "u10m.labsea1979"
(PID.TID 0000.0001)  MDS_READ_FIELD: opening global file: u10m.labsea1979
(PID.TID 0000.0001) EXF_SET_FLD: processing field "vwind",  file: v10m.labsea1979
(PID.TID 0000.0001) EXF_SET_FLD:   myIter, count0, count1:         5      1      2
(PID.TID 0000.0001) EXF_SET_FLD:   first, changed, fac:   T   F    0.49316939890710387
(PID.TID 0000.0001) EXF_SET_FLD: field "vwind", it=         5, loading rec=     1
(PID.TID 0000.0001) EXF_SET_FLD:   from file: "v10m.labsea1979"
(PID.TID 0000.0001)  MDS_READ_FIELD: opening global file: v10m.labsea1979
(PID.TID 0000.0001) EXF_SET_FLD: field "vwind", it=         5, loading rec=     2
(PID.TID 0000.0001) EXF_SET_FLD:   from file: "v10m.labsea1979"
(PID.TID 0000.0001)  MDS_READ_FIELD: opening global file: v10m.labsea1979
(PID.TID 0000.0001) EXF_SET_FLD: processing field "atemp",  file: tair.labsea1979
(PID.TID 0000.0001) EXF_SET_FLD:   myIter, count0, count1:         5      1      2
(PID.TID 0000.0001) EXF_SET_FLD:   first, changed, fac:   T   F    0.49316939890710387
(PID.TID 0000.0001) EXF_SET_FLD: field "atemp", it=         5, loading rec=     1
(PID.TID 0000.0001) EXF_SET_FLD:   from file: "tair.labsea1979"
(PID.TID 0000.0001)  MDS_READ_FIELD: opening global file: tair.labsea1979
(PID.TID 0000.0001) EXF_SET_FLD: field "atemp", it=         5, loading rec=     2
(PID.TID 0000.0001) EXF_SET_FLD:   from file: "tair.labsea1979"
(PID.TID 0000.0001)  MDS_READ_FIELD: opening global file: tair.labsea1979
(PID.TID 0000.0001) EXF_SET_FLD: processing field "aqh",  file: qa.labsea1979
(PID.TID 0000.0001) EXF_SET_FLD:   myIter, count0, count1:         5      1      2
(PID.TID 0000.0001) EXF_SET_FLD:   first, changed, fac:   T   F    0.49316939890710387
(PID.TID 0000.0001) EXF_SET_FLD: field "aqh", it=         5, loading rec=     1
(PID.TID 0000.0001) EXF_SET_FLD:   from file: "qa.labsea1979"
(PID.TID 0000.0001)  MDS_READ_FIELD: opening global file: qa.labsea1979
(PID.TID 0000.0001) EXF_SET_FLD: field "aqh", it=         5, loading rec=     2
(PID.TID 0000.0001) EXF_SET_FLD:   from file: "qa.labsea1979"
(PID.TID 0000.0001)  MDS_READ_FIELD: opening global file: qa.labsea1979
(PID.TID 0000.0001) EXF_SET_FLD: processing field "precip",  file: prate.labsea1979
(PID.TID 0000.0001) EXF_SET_FLD:   myIter, count0, count1:         5      1      2
(PID.TID 0000.0001) EXF_SET_FLD:   first, changed, fac:   T   F    0.49316939890710387
(PID.TID 0000.0001) EXF_SET_FLD: field "precip", it=         5, loading rec=     1
(PID.TID 0000.0001) EXF_SET_FLD:   from file: "prate.labsea1979"
(PID.TID 0000.0001)  MDS_READ_FIELD: opening global file: prate.labsea1979
(PID.TID 0000.0001) EXF_SET_FLD: field "precip", it=         5, loading rec=     2
(PID.TID 0000.0001) EXF_SET_FLD:   from file: "prate.labsea1979"
(PID.TID 0000.0001)  MDS_READ_FIELD: opening global file: prate.labsea1979
(PID.TID 0000.0001) EXF_SET_FLD: processing field "swdown",  file: fsh.labsea1979
(PID.TID 0000.0001) EXF_SET_FLD:   myIter, count0, count1:         5      1      2
(PID.TID 0000.0001) EXF_SET_FLD:   first, changed, fac:   T   F    0.49316939890710387
(PID.TID 0000.0001) EXF_SET_FLD: field "swdown", it=         5, loading rec=     1
(PID.TID 0000.0001) EXF_SET_FLD:   from file: "fsh.labsea1979"
(PID.TID 0000.0001)  MDS_READ_FIELD: opening global file: fsh.labsea1979
(PID.TID 0000.0001) EXF_SET_FLD: field "swdown", it=         5, loading rec=     2
(PID.TID 0000.0001) EXF_SET_FLD:   from file: "fsh.labsea1979"
(PID.TID 0000.0001)  MDS_READ_FIELD: opening global file: fsh.labsea1979
(PID.TID 0000.0001) EXF_SET_FLD: processing field "lwdown",  file: flo.labsea1979
(PID.TID 0000.0001) EXF_SET_FLD:   myIter, count0, count1:         5      1      2
(PID.TID 0000.0001) EXF_SET_FLD:   first, changed, fac:   T   F    0.49316939890710387
(PID.TID 0000.0001) EXF_SET_FLD: field "lwdown", it=         5, loading rec=     1
(PID.TID 0000.0001) EXF_SET_FLD:   from file: "flo.labsea1979"
(PID.TID 0000.0001)  MDS_READ_FIELD: opening global file: flo.labsea1979
(PID.TID 0000.0001) EXF_SET_FLD: field "lwdown", it=         5, loading rec=     2
(PID.TID 0000.0001) EXF_SET_FLD:   from file: "flo.labsea1979"
(PID.TID 0000.0001)  MDS_READ_FIELD: opening global file: flo.labsea1979
DEBUG_STATS_RL: Uice pre  iter (SEAICE_LSR  1)  min= -9.02121933428159E-03
DEBUG_STATS_RL: Uice pre  iter (SEAICE_LSR  1)  max=  2.19445684647109E-01
DEBUG_STATS_RL: Uice pre  iter (SEAICE_LSR  1) mean=  6.96639305502532E-02
DEBUG_STATS_RL: Uice pre  iter (SEAICE_LSR  1) S.D.=  7.25590715280224E-02
DEBUG_STATS_RL: Vice pre  iter (SEAICE_LSR  1)  min= -1.73112057819563E-01
DEBUG_STATS_RL: Vice pre  iter (SEAICE_LSR  1)  max=  1.05174802576008E-01
DEBUG_STATS_RL: Vice pre  iter (SEAICE_LSR  1) mean= -3.44957645455127E-02
DEBUG_STATS_RL: Vice pre  iter (SEAICE_LSR  1) S.D.=  5.17027322842165E-02
DEBUG_STATS_RL: Uice pre  iter (SEAICE_LSR  2)  min= -9.93295031152210E-03
DEBUG_STATS_RL: Uice pre  iter (SEAICE_LSR  2)  max=  2.37649472779152E-01
DEBUG_STATS_RL: Uice pre  iter (SEAICE_LSR  2) mean=  7.08960993522900E-02
DEBUG_STATS_RL: Uice pre  iter (SEAICE_LSR  2) S.D.=  7.51814019583860E-02
DEBUG_STATS_RL: Vice pre  iter (SEAICE_LSR  2)  min= -1.73458139241626E-01
DEBUG_STATS_RL: Vice pre  iter (SEAICE_LSR  2)  max=  1.02503634704982E-01
DEBUG_STATS_RL: Vice pre  iter (SEAICE_LSR  2) mean= -3.89801386768760E-02
DEBUG_STATS_RL: Vice pre  iter (SEAICE_LSR  2) S.D.=  5.44920749395038E-02
DEBUG_STATS_RL:                EtaN (DYNAMICS)  min= -1.29709672821213E-01
DEBUG_STATS_RL:                EtaN (DYNAMICS)  max=  3.25626876398477E-01
DEBUG_STATS_RL:                EtaN (DYNAMICS) mean= -3.00841690122536E-03
DEBUG_STATS_RL:                EtaN (DYNAMICS) S.D.=  7.54180814594036E-02
DEBUG_STATS_RL:                Uvel (DYNAMICS)  min= -3.64296443204224E-02
DEBUG_STATS_RL:                Uvel (DYNAMICS)  max=  8.91662112566489E-02
DEBUG_STATS_RL:                Uvel (DYNAMICS) mean=  5.18186102505262E-03
DEBUG_STATS_RL:                Uvel (DYNAMICS) S.D.=  1.36791834404111E-02
DEBUG_STATS_RL:                Vvel (DYNAMICS)  min= -8.48427067731397E-02
DEBUG_STATS_RL:                Vvel (DYNAMICS)  max=  7.15709637633448E-02
DEBUG_STATS_RL:                Vvel (DYNAMICS) mean= -6.25663991250223E-04
DEBUG_STATS_RL:                Vvel (DYNAMICS) S.D.=  1.65568599029307E-02
DEBUG_STATS_RL:                Wvel (DYNAMICS)  min= -2.02998023749463E-04
DEBUG_STATS_RL:                Wvel (DYNAMICS)  max=  3.07634744219620E-04
DEBUG_STATS_RL:                Wvel (DYNAMICS) mean= -2.14485636605179E-07
DEBUG_STATS_RL:                Wvel (DYNAMICS) S.D.=  2.56514188295233E-05
DEBUG_STATS_RL:               Theta (DYNAMICS)  min= -1.95891909892377E+00
DEBUG_STATS_RL:               Theta (DYNAMICS)  max=  1.32575107273067E+01
DEBUG_STATS_RL:               Theta (DYNAMICS) mean=  2.41560973729717E+00
DEBUG_STATS_RL:               Theta (DYNAMICS) S.D.=  2.57506629522921E+00
DEBUG_STATS_RL:                Salt (DYNAMICS)  min=  2.76241835718781E+01
DEBUG_STATS_RL:                Salt (DYNAMICS)  max=  3.54512322319690E+01
DEBUG_STATS_RL:                Salt (DYNAMICS) mean=  3.39367610972827E+01
DEBUG_STATS_RL:                Salt (DYNAMICS) S.D.=  1.15400523729775E+00
DEBUG_STATS_RL:                  Gu (DYNAMICS)  min= -3.40661284878781E-02
DEBUG_STATS_RL:                  Gu (DYNAMICS)  max=  1.09592409505601E-01
DEBUG_STATS_RL:                  Gu (DYNAMICS) mean=  3.43340148231612E-03
DEBUG_STATS_RL:                  Gu (DYNAMICS) S.D.=  1.52106643070904E-02
DEBUG_STATS_RL:                  Gv (DYNAMICS)  min= -1.19743996000496E-01
DEBUG_STATS_RL:                  Gv (DYNAMICS)  max=  5.31755908727337E-02
DEBUG_STATS_RL:                  Gv (DYNAMICS) mean= -6.43607759844673E-03
DEBUG_STATS_RL:                  Gv (DYNAMICS) S.D.=  1.74595586593132E-02
DEBUG_STATS_RL:               GuNm1 (DYNAMICS)  min= -2.94347299884301E-07
DEBUG_STATS_RL:               GuNm1 (DYNAMICS)  max=  1.78770581560375E-07
DEBUG_STATS_RL:               GuNm1 (DYNAMICS) mean= -3.06311171945198E-09
DEBUG_STATS_RL:               GuNm1 (DYNAMICS) S.D.=  4.19614199163276E-08
DEBUG_STATS_RL:               GvNm1 (DYNAMICS)  min= -1.82273635415880E-07
DEBUG_STATS_RL:               GvNm1 (DYNAMICS)  max=  1.24273330978528E-07
DEBUG_STATS_RL:               GvNm1 (DYNAMICS) mean= -1.05360009952046E-09
DEBUG_STATS_RL:               GvNm1 (DYNAMICS) S.D.=  3.58773704868012E-08
DEBUG_STATS_RL:               GtNm1 (DYNAMICS)  min=  0.00000000000000E+00
DEBUG_STATS_RL:               GtNm1 (DYNAMICS)  max=  0.00000000000000E+00
DEBUG_STATS_RL:               GtNm1 (DYNAMICS) mean=  0.00000000000000E+00
DEBUG_STATS_RL:               GtNm1 (DYNAMICS) S.D.=  0.00000000000000E+00
DEBUG_STATS_RL:               GsNm1 (DYNAMICS)  min=  0.00000000000000E+00
DEBUG_STATS_RL:               GsNm1 (DYNAMICS)  max=  0.00000000000000E+00
DEBUG_STATS_RL:               GsNm1 (DYNAMICS) mean=  0.00000000000000E+00
DEBUG_STATS_RL:               GsNm1 (DYNAMICS) S.D.=  0.00000000000000E+00
(PID.TID 0000.0001) SOLVE_FOR_PRESSURE: putPmEinXvector =    F
DEBUG_STATS_RL:    cg2d_b (SOLVE_FOR_PRESSURE)  min= -7.45833771571459E+03
DEBUG_STATS_RL:    cg2d_b (SOLVE_FOR_PRESSURE)  max=  2.17494903027769E+03
DEBUG_STATS_RL:    cg2d_b (SOLVE_FOR_PRESSURE) mean=  4.18935997004155E-13
DEBUG_STATS_RL:    cg2d_b (SOLVE_FOR_PRESSURE) S.D.=  9.06377010650268E+02
 cg2d: Sum(rhs),rhsMax =   8.29197821516914E-15  1.20041496847834E+00
DEBUG_STATS_RL:    cg2d_x (SOLVE_FOR_PRESSURE)  min= -1.23196163368130E+00
DEBUG_STATS_RL:    cg2d_x (SOLVE_FOR_PRESSURE)  max=  3.23727429689848E+00
DEBUG_STATS_RL:    cg2d_x (SOLVE_FOR_PRESSURE) mean= -3.45194761148230E-02
DEBUG_STATS_RL:    cg2d_x (SOLVE_FOR_PRESSURE) S.D.=  7.10912240392561E-01
DEBUG_STATS_RL:          Uvel (THERMODYNAMICS)  min= -3.59096386964102E-02
DEBUG_STATS_RL:          Uvel (THERMODYNAMICS)  max=  1.01288605318195E-01
DEBUG_STATS_RL:          Uvel (THERMODYNAMICS) mean=  5.06442107691443E-03
DEBUG_STATS_RL:          Uvel (THERMODYNAMICS) S.D.=  1.40087544095653E-02
DEBUG_STATS_RL:          Vvel (THERMODYNAMICS)  min= -1.10756263988798E-01
DEBUG_STATS_RL:          Vvel (THERMODYNAMICS)  max=  7.07208418107748E-02
DEBUG_STATS_RL:          Vvel (THERMODYNAMICS) mean= -2.17557054828444E-03
DEBUG_STATS_RL:          Vvel (THERMODYNAMICS) S.D.=  1.80912833066385E-02
DEBUG_STATS_RL:          Wvel (THERMODYNAMICS)  min= -2.43811460414301E-04
DEBUG_STATS_RL:          Wvel (THERMODYNAMICS)  max=  3.28816353261790E-04
DEBUG_STATS_RL:          Wvel (THERMODYNAMICS) mean= -1.37923543342930E-07
DEBUG_STATS_RL:          Wvel (THERMODYNAMICS) S.D.=  2.75149300864468E-05
DEBUG_STATS_RL:         Theta (THERMODYNAMICS)  min= -1.96015217723737E+00
DEBUG_STATS_RL:         Theta (THERMODYNAMICS)  max=  1.32512671183370E+01
DEBUG_STATS_RL:         Theta (THERMODYNAMICS) mean=  2.41531606071968E+00
DEBUG_STATS_RL:         Theta (THERMODYNAMICS) S.D.=  2.57483151675911E+00
DEBUG_STATS_RL:          Salt (THERMODYNAMICS)  min=  2.76290307531745E+01
DEBUG_STATS_RL:          Salt (THERMODYNAMICS)  max=  3.54512307060718E+01
DEBUG_STATS_RL:          Salt (THERMODYNAMICS) mean=  3.39367446276238E+01
DEBUG_STATS_RL:          Salt (THERMODYNAMICS) S.D.=  1.15382313156805E+00
DEBUG_STATS_RL:         GtNm1 (THERMODYNAMICS)  min=  0.00000000000000E+00
DEBUG_STATS_RL:         GtNm1 (THERMODYNAMICS)  max=  0.00000000000000E+00
DEBUG_STATS_RL:         GtNm1 (THERMODYNAMICS) mean=  0.00000000000000E+00
DEBUG_STATS_RL:         GtNm1 (THERMODYNAMICS) S.D.=  0.00000000000000E+00
DEBUG_STATS_RL:         GsNm1 (THERMODYNAMICS)  min=  0.00000000000000E+00
DEBUG_STATS_RL:         GsNm1 (THERMODYNAMICS)  max=  0.00000000000000E+00
DEBUG_STATS_RL:         GsNm1 (THERMODYNAMICS) mean=  0.00000000000000E+00
DEBUG_STATS_RL:         GsNm1 (THERMODYNAMICS) S.D.=  0.00000000000000E+00
(PID.TID 0000.0001)  MDS_WRITE_FIELD: it,rec,kS,kL,kH=       1     2   1   1   1 file=m_sst_step.0000000001
(PID.TID 0000.0001)  MDS_READ_FIELD: opening global file: xx_atemp.effective.0000000001.data
(PID.TID 0000.0001) EXF_SET_FLD: processing field "climsss",  file: SSS_monthly.labsea1979
(PID.TID 0000.0001) EXF_SET_FLD:   myIter, count0, count1:         6      1      2
(PID.TID 0000.0001) EXF_SET_FLD:   first, changed, fac:   F   F    0.49180327868852458
(PID.TID 0000.0001) EXF_SET_FLD: processing field "uwind",  file: u10m.labsea1979
(PID.TID 0000.0001) EXF_SET_FLD:   myIter, count0, count1:         6      1      2
(PID.TID 0000.0001) EXF_SET_FLD:   first, changed, fac:   F   F    0.49180327868852458
(PID.TID 0000.0001) EXF_SET_FLD: processing field "vwind",  file: v10m.labsea1979
(PID.TID 0000.0001) EXF_SET_FLD:   myIter, count0, count1:         6      1      2
(PID.TID 0000.0001) EXF_SET_FLD:   first, changed, fac:   F   F    0.49180327868852458
(PID.TID 0000.0001) EXF_SET_FLD: processing field "atemp",  file: tair.labsea1979
(PID.TID 0000.0001) EXF_SET_FLD:   myIter, count0, count1:         6      1      2
(PID.TID 0000.0001) EXF_SET_FLD:   first, changed, fac:   F   F    0.49180327868852458
(PID.TID 0000.0001) EXF_SET_FLD: processing field "aqh",  file: qa.labsea1979
(PID.TID 0000.0001) EXF_SET_FLD:   myIter, count0, count1:         6      1      2
(PID.TID 0000.0001) EXF_SET_FLD:   first, changed, fac:   F   F    0.49180327868852458
(PID.TID 0000.0001) EXF_SET_FLD: processing field "precip",  file: prate.labsea1979
(PID.TID 0000.0001) EXF_SET_FLD:   myIter, count0, count1:         6      1      2
(PID.TID 0000.0001) EXF_SET_FLD:   first, changed, fac:   F   F    0.49180327868852458
(PID.TID 0000.0001) EXF_SET_FLD: processing field "swdown",  file: fsh.labsea1979
(PID.TID 0000.0001) EXF_SET_FLD:   myIter, count0, count1:         6      1      2
(PID.TID 0000.0001) EXF_SET_FLD:   first, changed, fac:   F   F    0.49180327868852458
(PID.TID 0000.0001) EXF_SET_FLD: processing field "lwdown",  file: flo.labsea1979
(PID.TID 0000.0001) EXF_SET_FLD:   myIter, count0, count1:         6      1      2
(PID.TID 0000.0001) EXF_SET_FLD:   first, changed, fac:   F   F    0.49180327868852458
DEBUG_STATS_RL: Uice pre  iter (SEAICE_LSR  1)  min= -1.19106759196614E-02
DEBUG_STATS_RL: Uice pre  iter (SEAICE_LSR  1)  max=  2.40859973799500E-01
DEBUG_STATS_RL: Uice pre  iter (SEAICE_LSR  1) mean=  7.02597534860948E-02
DEBUG_STATS_RL: Uice pre  iter (SEAICE_LSR  1) S.D.=  7.57773428259753E-02
DEBUG_STATS_RL: Vice pre  iter (SEAICE_LSR  1)  min= -1.74132342678207E-01
DEBUG_STATS_RL: Vice pre  iter (SEAICE_LSR  1)  max=  9.66358613081399E-02
DEBUG_STATS_RL: Vice pre  iter (SEAICE_LSR  1) mean= -4.28491368242810E-02
DEBUG_STATS_RL: Vice pre  iter (SEAICE_LSR  1) S.D.=  5.63763392291550E-02
DEBUG_STATS_RL: Uice pre  iter (SEAICE_LSR  2)  min= -1.30564509125757E-02
DEBUG_STATS_RL: Uice pre  iter (SEAICE_LSR  2)  max=  2.47901039964918E-01
DEBUG_STATS_RL: Uice pre  iter (SEAICE_LSR  2) mean=  6.80717062410296E-02
DEBUG_STATS_RL: Uice pre  iter (SEAICE_LSR  2) S.D.=  7.48548542542582E-02
DEBUG_STATS_RL: Vice pre  iter (SEAICE_LSR  2)  min= -1.68314830999124E-01
DEBUG_STATS_RL: Vice pre  iter (SEAICE_LSR  2)  max=  8.87290074915900E-02
DEBUG_STATS_RL: Vice pre  iter (SEAICE_LSR  2) mean= -4.61137817409455E-02
DEBUG_STATS_RL: Vice pre  iter (SEAICE_LSR  2) S.D.=  5.74118961796309E-02
DEBUG_STATS_RL:                EtaN (DYNAMICS)  min= -1.25510578434462E-01
DEBUG_STATS_RL:                EtaN (DYNAMICS)  max=  3.29809109672203E-01
DEBUG_STATS_RL:                EtaN (DYNAMICS) mean= -3.51679735470302E-03
DEBUG_STATS_RL:                EtaN (DYNAMICS) S.D.=  7.24267737471536E-02
DEBUG_STATS_RL:                Uvel (DYNAMICS)  min= -3.59096386964102E-02
DEBUG_STATS_RL:                Uvel (DYNAMICS)  max=  1.01288605318195E-01
DEBUG_STATS_RL:                Uvel (DYNAMICS) mean=  5.06442107691443E-03
DEBUG_STATS_RL:                Uvel (DYNAMICS) S.D.=  1.40087544095653E-02
DEBUG_STATS_RL:                Vvel (DYNAMICS)  min= -1.10756263988798E-01
DEBUG_STATS_RL:                Vvel (DYNAMICS)  max=  7.07208418107748E-02
DEBUG_STATS_RL:                Vvel (DYNAMICS) mean= -2.17557054828444E-03
DEBUG_STATS_RL:                Vvel (DYNAMICS) S.D.=  1.80912833066385E-02
DEBUG_STATS_RL:                Wvel (DYNAMICS)  min= -2.43811460414301E-04
DEBUG_STATS_RL:                Wvel (DYNAMICS)  max=  3.28816353261790E-04
DEBUG_STATS_RL:                Wvel (DYNAMICS) mean= -1.37923543342930E-07
DEBUG_STATS_RL:                Wvel (DYNAMICS) S.D.=  2.75149300864468E-05
DEBUG_STATS_RL:               Theta (DYNAMICS)  min= -1.96015217723737E+00
DEBUG_STATS_RL:               Theta (DYNAMICS)  max=  1.32512671183370E+01
DEBUG_STATS_RL:               Theta (DYNAMICS) mean=  2.41531606071968E+00
DEBUG_STATS_RL:               Theta (DYNAMICS) S.D.=  2.57483151675911E+00
DEBUG_STATS_RL:                Salt (DYNAMICS)  min=  2.76290307531745E+01
DEBUG_STATS_RL:                Salt (DYNAMICS)  max=  3.54512307060718E+01
DEBUG_STATS_RL:                Salt (DYNAMICS) mean=  3.39367446276238E+01
DEBUG_STATS_RL:                Salt (DYNAMICS) S.D.=  1.15382313156805E+00
DEBUG_STATS_RL:                  Gu (DYNAMICS)  min= -4.45840116890899E-02
DEBUG_STATS_RL:                  Gu (DYNAMICS)  max=  1.13252404039500E-01
DEBUG_STATS_RL:                  Gu (DYNAMICS) mean=  3.02808241161229E-03
DEBUG_STATS_RL:                  Gu (DYNAMICS) S.D.=  1.59063121238893E-02
DEBUG_STATS_RL:                  Gv (DYNAMICS)  min= -1.34630447324912E-01
DEBUG_STATS_RL:                  Gv (DYNAMICS)  max=  4.81174890382835E-02
DEBUG_STATS_RL:                  Gv (DYNAMICS) mean= -7.41639241987065E-03
DEBUG_STATS_RL:                  Gv (DYNAMICS) S.D.=  1.85638365104700E-02
DEBUG_STATS_RL:               GuNm1 (DYNAMICS)  min= -3.33271036892904E-07
DEBUG_STATS_RL:               GuNm1 (DYNAMICS)  max=  1.87479663955270E-07
DEBUG_STATS_RL:               GuNm1 (DYNAMICS) mean= -3.31200046769952E-09
DEBUG_STATS_RL:               GuNm1 (DYNAMICS) S.D.=  4.08419141881971E-08
DEBUG_STATS_RL:               GvNm1 (DYNAMICS)  min= -2.04912919624491E-07
DEBUG_STATS_RL:               GvNm1 (DYNAMICS)  max=  1.56710147054438E-07
DEBUG_STATS_RL:               GvNm1 (DYNAMICS) mean= -8.96938696731291E-10
DEBUG_STATS_RL:               GvNm1 (DYNAMICS) S.D.=  3.95873164870957E-08
DEBUG_STATS_RL:               GtNm1 (DYNAMICS)  min=  0.00000000000000E+00
DEBUG_STATS_RL:               GtNm1 (DYNAMICS)  max=  0.00000000000000E+00
DEBUG_STATS_RL:               GtNm1 (DYNAMICS) mean=  0.00000000000000E+00
DEBUG_STATS_RL:               GtNm1 (DYNAMICS) S.D.=  0.00000000000000E+00
DEBUG_STATS_RL:               GsNm1 (DYNAMICS)  min=  0.00000000000000E+00
DEBUG_STATS_RL:               GsNm1 (DYNAMICS)  max=  0.00000000000000E+00
DEBUG_STATS_RL:               GsNm1 (DYNAMICS) mean=  0.00000000000000E+00
DEBUG_STATS_RL:               GsNm1 (DYNAMICS) S.D.=  0.00000000000000E+00
DEBUG_STATS_RL:    cg2d_b (SOLVE_FOR_PRESSURE)  min= -7.43169656861245E+03
DEBUG_STATS_RL:    cg2d_b (SOLVE_FOR_PRESSURE)  max=  2.17598296942634E+03
DEBUG_STATS_RL:    cg2d_b (SOLVE_FOR_PRESSURE) mean=  6.96331881044898E-13
DEBUG_STATS_RL:    cg2d_b (SOLVE_FOR_PRESSURE) S.D.=  9.02750100849735E+02
 cg2d: Sum(rhs),rhsMax =   1.41067713066434E-14  1.19612709187932E+00
DEBUG_STATS_RL:    cg2d_x (SOLVE_FOR_PRESSURE)  min= -1.18794061890904E+00
DEBUG_STATS_RL:    cg2d_x (SOLVE_FOR_PRESSURE)  max=  3.24511049575726E+00
DEBUG_STATS_RL:    cg2d_x (SOLVE_FOR_PRESSURE) mean= -3.88654400025836E-02
DEBUG_STATS_RL:    cg2d_x (SOLVE_FOR_PRESSURE) S.D.=  6.81167535252279E-01
DEBUG_STATS_RL:          Uvel (THERMODYNAMICS)  min= -3.57601727936033E-02
DEBUG_STATS_RL:          Uvel (THERMODYNAMICS)  max=  1.04775938290593E-01
DEBUG_STATS_RL:          Uvel (THERMODYNAMICS) mean=  4.39725630125182E-03
DEBUG_STATS_RL:          Uvel (THERMODYNAMICS) S.D.=  1.39028540310335E-02
DEBUG_STATS_RL:          Vvel (THERMODYNAMICS)  min= -1.27584762387762E-01
DEBUG_STATS_RL:          Vvel (THERMODYNAMICS)  max=  6.50083276838834E-02
DEBUG_STATS_RL:          Vvel (THERMODYNAMICS) mean= -3.36887217582008E-03
DEBUG_STATS_RL:          Vvel (THERMODYNAMICS) S.D.=  1.85890275650197E-02
DEBUG_STATS_RL:          Wvel (THERMODYNAMICS)  min= -2.67954696014334E-04
DEBUG_STATS_RL:          Wvel (THERMODYNAMICS)  max=  3.29804232734301E-04
DEBUG_STATS_RL:          Wvel (THERMODYNAMICS) mean= -4.85616750767614E-08
DEBUG_STATS_RL:          Wvel (THERMODYNAMICS) S.D.=  2.84164537902804E-05
DEBUG_STATS_RL:         Theta (THERMODYNAMICS)  min= -1.95963016104374E+00
DEBUG_STATS_RL:         Theta (THERMODYNAMICS)  max=  1.32396343409662E+01
DEBUG_STATS_RL:         Theta (THERMODYNAMICS) mean=  2.41506584132490E+00
DEBUG_STATS_RL:         Theta (THERMODYNAMICS) S.D.=  2.57443936967394E+00
DEBUG_STATS_RL:          Salt (THERMODYNAMICS)  min=  2.76338867569799E+01
DEBUG_STATS_RL:          Salt (THERMODYNAMICS)  max=  3.54511617149686E+01
DEBUG_STATS_RL:          Salt (THERMODYNAMICS) mean=  3.39367496241626E+01
DEBUG_STATS_RL:          Salt (THERMODYNAMICS) S.D.=  1.15359229307638E+00
DEBUG_STATS_RL:         GtNm1 (THERMODYNAMICS)  min=  0.00000000000000E+00
DEBUG_STATS_RL:         GtNm1 (THERMODYNAMICS)  max=  0.00000000000000E+00
DEBUG_STATS_RL:         GtNm1 (THERMODYNAMICS) mean=  0.00000000000000E+00
DEBUG_STATS_RL:         GtNm1 (THERMODYNAMICS) S.D.=  0.00000000000000E+00
DEBUG_STATS_RL:         GsNm1 (THERMODYNAMICS)  min=  0.00000000000000E+00
DEBUG_STATS_RL:         GsNm1 (THERMODYNAMICS)  max=  0.00000000000000E+00
DEBUG_STATS_RL:         GsNm1 (THERMODYNAMICS) mean=  0.00000000000000E+00
DEBUG_STATS_RL:         GsNm1 (THERMODYNAMICS) S.D.=  0.00000000000000E+00
(PID.TID 0000.0001)  MDS_WRITE_FIELD: it,rec,kS,kL,kH=       1     3   1   1   1 file=m_sst_step.0000000001
(PID.TID 0000.0001)  MDS_READ_FIELD: opening global file: xx_atemp.effective.0000000001.data
(PID.TID 0000.0001) EXF_SET_FLD: processing field "climsss",  file: SSS_monthly.labsea1979
(PID.TID 0000.0001) EXF_SET_FLD:   myIter, count0, count1:         7      1      2
(PID.TID 0000.0001) EXF_SET_FLD:   first, changed, fac:   F   F    0.49043715846994540
(PID.TID 0000.0001) EXF_SET_FLD: processing field "uwind",  file: u10m.labsea1979
(PID.TID 0000.0001) EXF_SET_FLD:   myIter, count0, count1:         7      1      2
(PID.TID 0000.0001) EXF_SET_FLD:   first, changed, fac:   F   F    0.49043715846994540
(PID.TID 0000.0001) EXF_SET_FLD: processing field "vwind",  file: v10m.labsea1979
(PID.TID 0000.0001) EXF_SET_FLD:   myIter, count0, count1:         7      1      2
(PID.TID 0000.0001) EXF_SET_FLD:   first, changed, fac:   F   F    0.49043715846994540
(PID.TID 0000.0001) EXF_SET_FLD: processing field "atemp",  file: tair.labsea1979
(PID.TID 0000.0001) EXF_SET_FLD:   myIter, count0, count1:         7      1      2
(PID.TID 0000.0001) EXF_SET_FLD:   first, changed, fac:   F   F    0.49043715846994540
(PID.TID 0000.0001) EXF_SET_FLD: processing field "aqh",  file: qa.labsea1979
(PID.TID 0000.0001) EXF_SET_FLD:   myIter, count0, count1:         7      1      2
(PID.TID 0000.0001) EXF_SET_FLD:   first, changed, fac:   F   F    0.49043715846994540
(PID.TID 0000.0001) EXF_SET_FLD: processing field "precip",  file: prate.labsea1979
(PID.TID 0000.0001) EXF_SET_FLD:   myIter, count0, count1:         7      1      2
(PID.TID 0000.0001) EXF_SET_FLD:   first, changed, fac:   F   F    0.49043715846994540
(PID.TID 0000.0001) EXF_SET_FLD: processing field "swdown",  file: fsh.labsea1979
(PID.TID 0000.0001) EXF_SET_FLD:   myIter, count0, count1:         7      1      2
(PID.TID 0000.0001) EXF_SET_FLD:   first, changed, fac:   F   F    0.49043715846994540
(PID.TID 0000.0001) EXF_SET_FLD: processing field "lwdown",  file: flo.labsea1979
(PID.TID 0000.0001) EXF_SET_FLD:   myIter, count0, count1:         7      1      2
(PID.TID 0000.0001) EXF_SET_FLD:   first, changed, fac:   F   F    0.49043715846994540
DEBUG_STATS_RL: Uice pre  iter (SEAICE_LSR  1)  min= -1.54549194525866E-02
DEBUG_STATS_RL: Uice pre  iter (SEAICE_LSR  1)  max=  2.53524286292195E-01
DEBUG_STATS_RL: Uice pre  iter (SEAICE_LSR  1) mean=  6.68799365320119E-02
DEBUG_STATS_RL: Uice pre  iter (SEAICE_LSR  1) S.D.=  7.54478852962580E-02
DEBUG_STATS_RL: Vice pre  iter (SEAICE_LSR  1)  min= -1.68373183021268E-01
DEBUG_STATS_RL: Vice pre  iter (SEAICE_LSR  1)  max=  8.10859368452303E-02
DEBUG_STATS_RL: Vice pre  iter (SEAICE_LSR  1) mean= -4.94905385200998E-02
DEBUG_STATS_RL: Vice pre  iter (SEAICE_LSR  1) S.D.=  5.89447951203408E-02
DEBUG_STATS_RL: Uice pre  iter (SEAICE_LSR  2)  min= -1.68104910559763E-02
DEBUG_STATS_RL: Uice pre  iter (SEAICE_LSR  2)  max=  2.51381266335640E-01
DEBUG_STATS_RL: Uice pre  iter (SEAICE_LSR  2) mean=  6.26056742417120E-02
DEBUG_STATS_RL: Uice pre  iter (SEAICE_LSR  2) S.D.=  7.23215228186589E-02
DEBUG_STATS_RL: Vice pre  iter (SEAICE_LSR  2)  min= -1.70146515867233E-01
DEBUG_STATS_RL: Vice pre  iter (SEAICE_LSR  2)  max=  7.01571636850258E-02
DEBUG_STATS_RL: Vice pre  iter (SEAICE_LSR  2) mean= -5.12009841743803E-02
DEBUG_STATS_RL: Vice pre  iter (SEAICE_LSR  2) S.D.=  5.84735965012139E-02
DEBUG_STATS_RL:                EtaN (DYNAMICS)  min= -1.21025777222894E-01
DEBUG_STATS_RL:                EtaN (DYNAMICS)  max=  3.30607450971643E-01
DEBUG_STATS_RL:                EtaN (DYNAMICS) mean= -3.95955825447081E-03
DEBUG_STATS_RL:                EtaN (DYNAMICS) S.D.=  6.93964235759688E-02
DEBUG_STATS_RL:                Uvel (DYNAMICS)  min= -3.57601727936033E-02
DEBUG_STATS_RL:                Uvel (DYNAMICS)  max=  1.04775938290593E-01
DEBUG_STATS_RL:                Uvel (DYNAMICS) mean=  4.39725630125182E-03
DEBUG_STATS_RL:                Uvel (DYNAMICS) S.D.=  1.39028540310335E-02
DEBUG_STATS_RL:                Vvel (DYNAMICS)  min= -1.27584762387762E-01
DEBUG_STATS_RL:                Vvel (DYNAMICS)  max=  6.50083276838834E-02
DEBUG_STATS_RL:                Vvel (DYNAMICS) mean= -3.36887217582008E-03
DEBUG_STATS_RL:                Vvel (DYNAMICS) S.D.=  1.85890275650197E-02
DEBUG_STATS_RL:                Wvel (DYNAMICS)  min= -2.67954696014334E-04
DEBUG_STATS_RL:                Wvel (DYNAMICS)  max=  3.29804232734301E-04
DEBUG_STATS_RL:                Wvel (DYNAMICS) mean= -4.85616750767614E-08
DEBUG_STATS_RL:                Wvel (DYNAMICS) S.D.=  2.84164537902804E-05
DEBUG_STATS_RL:               Theta (DYNAMICS)  min= -1.95963016104374E+00
DEBUG_STATS_RL:               Theta (DYNAMICS)  max=  1.32396343409662E+01
DEBUG_STATS_RL:               Theta (DYNAMICS) mean=  2.41506584132490E+00
DEBUG_STATS_RL:               Theta (DYNAMICS) S.D.=  2.57443936967394E+00
DEBUG_STATS_RL:                Salt (DYNAMICS)  min=  2.76338867569799E+01
DEBUG_STATS_RL:                Salt (DYNAMICS)  max=  3.54511617149686E+01
DEBUG_STATS_RL:                Salt (DYNAMICS) mean=  3.39367496241626E+01
DEBUG_STATS_RL:                Salt (DYNAMICS) S.D.=  1.15359229307638E+00
DEBUG_STATS_RL:                  Gu (DYNAMICS)  min= -5.18639383664093E-02
DEBUG_STATS_RL:                  Gu (DYNAMICS)  max=  1.08500044377568E-01
DEBUG_STATS_RL:                  Gu (DYNAMICS) mean=  2.22152146945400E-03
DEBUG_STATS_RL:                  Gu (DYNAMICS) S.D.=  1.62488741545267E-02
DEBUG_STATS_RL:                  Gv (DYNAMICS)  min= -1.40216393355448E-01
DEBUG_STATS_RL:                  Gv (DYNAMICS)  max=  4.07135165171732E-02
DEBUG_STATS_RL:                  Gv (DYNAMICS) mean= -7.84361289825861E-03
DEBUG_STATS_RL:                  Gv (DYNAMICS) S.D.=  1.86090017356288E-02
DEBUG_STATS_RL:               GuNm1 (DYNAMICS)  min= -3.48473911940034E-07
DEBUG_STATS_RL:               GuNm1 (DYNAMICS)  max=  1.90416017948021E-07
DEBUG_STATS_RL:               GuNm1 (DYNAMICS) mean= -3.12306477014106E-09
DEBUG_STATS_RL:               GuNm1 (DYNAMICS) S.D.=  4.09417632400134E-08
DEBUG_STATS_RL:               GvNm1 (DYNAMICS)  min= -2.15359173477236E-07
DEBUG_STATS_RL:               GvNm1 (DYNAMICS)  max=  1.82438063100004E-07
DEBUG_STATS_RL:               GvNm1 (DYNAMICS) mean= -6.53519601921780E-10
DEBUG_STATS_RL:               GvNm1 (DYNAMICS) S.D.=  4.16452354556348E-08
DEBUG_STATS_RL:               GtNm1 (DYNAMICS)  min=  0.00000000000000E+00
DEBUG_STATS_RL:               GtNm1 (DYNAMICS)  max=  0.00000000000000E+00
DEBUG_STATS_RL:               GtNm1 (DYNAMICS) mean=  0.00000000000000E+00
DEBUG_STATS_RL:               GtNm1 (DYNAMICS) S.D.=  0.00000000000000E+00
DEBUG_STATS_RL:               GsNm1 (DYNAMICS)  min=  0.00000000000000E+00
DEBUG_STATS_RL:               GsNm1 (DYNAMICS)  max=  0.00000000000000E+00
DEBUG_STATS_RL:               GsNm1 (DYNAMICS) mean=  0.00000000000000E+00
DEBUG_STATS_RL:               GsNm1 (DYNAMICS) S.D.=  0.00000000000000E+00
DEBUG_STATS_RL:    cg2d_b (SOLVE_FOR_PRESSURE)  min= -7.37985604508148E+03
DEBUG_STATS_RL:    cg2d_b (SOLVE_FOR_PRESSURE)  max=  2.18366607280435E+03
DEBUG_STATS_RL:    cg2d_b (SOLVE_FOR_PRESSURE) mean=  6.18645875268461E-13
DEBUG_STATS_RL:    cg2d_b (SOLVE_FOR_PRESSURE) S.D.=  8.98963545839594E+02
 cg2d: Sum(rhs),rhsMax =   1.34267597040605E-14  1.18778339080378E+00
DEBUG_STATS_RL:    cg2d_x (SOLVE_FOR_PRESSURE)  min= -1.13929441834640E+00
DEBUG_STATS_RL:    cg2d_x (SOLVE_FOR_PRESSURE)  max=  3.20616731162253E+00
DEBUG_STATS_RL:    cg2d_x (SOLVE_FOR_PRESSURE) mean= -4.15672442271453E-02
DEBUG_STATS_RL:    cg2d_x (SOLVE_FOR_PRESSURE) S.D.=  6.51074617232215E-01
DEBUG_STATS_RL:          Uvel (THERMODYNAMICS)  min= -4.34802359621465E-02
DEBUG_STATS_RL:          Uvel (THERMODYNAMICS)  max=  9.99752242998808E-02
DEBUG_STATS_RL:          Uvel (THERMODYNAMICS) mean=  3.48264152589957E-03
DEBUG_STATS_RL:          Uvel (THERMODYNAMICS) S.D.=  1.35343125506116E-02
DEBUG_STATS_RL:          Vvel (THERMODYNAMICS)  min= -1.33439207289254E-01
DEBUG_STATS_RL:          Vvel (THERMODYNAMICS)  max=  5.60260700766945E-02
DEBUG_STATS_RL:          Vvel (THERMODYNAMICS) mean= -4.02696574872961E-03
DEBUG_STATS_RL:          Vvel (THERMODYNAMICS) S.D.=  1.80273334212797E-02
DEBUG_STATS_RL:          Wvel (THERMODYNAMICS)  min= -2.73348162229354E-04
DEBUG_STATS_RL:          Wvel (THERMODYNAMICS)  max=  3.13596923283671E-04
DEBUG_STATS_RL:          Wvel (THERMODYNAMICS) mean=  4.73709411313520E-08
DEBUG_STATS_RL:          Wvel (THERMODYNAMICS) S.D.=  2.82661454219204E-05
DEBUG_STATS_RL:         Theta (THERMODYNAMICS)  min= -1.95943609422387E+00
DEBUG_STATS_RL:         Theta (THERMODYNAMICS)  max=  1.32225113409295E+01
DEBUG_STATS_RL:         Theta (THERMODYNAMICS) mean=  2.41480286619418E+00
DEBUG_STATS_RL:         Theta (THERMODYNAMICS) S.D.=  2.57398860030337E+00
DEBUG_STATS_RL:          Salt (THERMODYNAMICS)  min=  2.76387468555707E+01
DEBUG_STATS_RL:          Salt (THERMODYNAMICS)  max=  3.54510358217953E+01
DEBUG_STATS_RL:          Salt (THERMODYNAMICS) mean=  3.39367601804946E+01
DEBUG_STATS_RL:          Salt (THERMODYNAMICS) S.D.=  1.15334890349729E+00
DEBUG_STATS_RL:         GtNm1 (THERMODYNAMICS)  min=  0.00000000000000E+00
DEBUG_STATS_RL:         GtNm1 (THERMODYNAMICS)  max=  0.00000000000000E+00
DEBUG_STATS_RL:         GtNm1 (THERMODYNAMICS) mean=  0.00000000000000E+00
DEBUG_STATS_RL:         GtNm1 (THERMODYNAMICS) S.D.=  0.00000000000000E+00
DEBUG_STATS_RL:         GsNm1 (THERMODYNAMICS)  min=  0.00000000000000E+00
DEBUG_STATS_RL:         GsNm1 (THERMODYNAMICS)  max=  0.00000000000000E+00
DEBUG_STATS_RL:         GsNm1 (THERMODYNAMICS) mean=  0.00000000000000E+00
DEBUG_STATS_RL:         GsNm1 (THERMODYNAMICS) S.D.=  0.00000000000000E+00
(PID.TID 0000.0001)  MDS_WRITE_FIELD: it,rec,kS,kL,kH=       1     4   1   1   1 file=m_sst_step.0000000001
(PID.TID 0000.0001)  MDS_READ_FIELD: opening global file: xx_atemp.effective.0000000001.data
(PID.TID 0000.0001) EXF_SET_FLD: processing field "climsss",  file: SSS_monthly.labsea1979
(PID.TID 0000.0001) EXF_SET_FLD:   myIter, count0, count1:         8      1      2
(PID.TID 0000.0001) EXF_SET_FLD:   first, changed, fac:   F   F    0.48907103825136611
(PID.TID 0000.0001) EXF_SET_FLD: processing field "uwind",  file: u10m.labsea1979
(PID.TID 0000.0001) EXF_SET_FLD:   myIter, count0, count1:         8      1      2
(PID.TID 0000.0001) EXF_SET_FLD:   first, changed, fac:   F   F    0.48907103825136611
(PID.TID 0000.0001) EXF_SET_FLD: processing field "vwind",  file: v10m.labsea1979
(PID.TID 0000.0001) EXF_SET_FLD:   myIter, count0, count1:         8      1      2
(PID.TID 0000.0001) EXF_SET_FLD:   first, changed, fac:   F   F    0.48907103825136611
(PID.TID 0000.0001) EXF_SET_FLD: processing field "atemp",  file: tair.labsea1979
(PID.TID 0000.0001) EXF_SET_FLD:   myIter, count0, count1:         8      1      2
(PID.TID 0000.0001) EXF_SET_FLD:   first, changed, fac:   F   F    0.48907103825136611
(PID.TID 0000.0001) EXF_SET_FLD: processing field "aqh",  file: qa.labsea1979
(PID.TID 0000.0001) EXF_SET_FLD:   myIter, count0, count1:         8      1      2
(PID.TID 0000.0001) EXF_SET_FLD:   first, changed, fac:   F   F    0.48907103825136611
(PID.TID 0000.0001) EXF_SET_FLD: processing field "precip",  file: prate.labsea1979
(PID.TID 0000.0001) EXF_SET_FLD:   myIter, count0, count1:         8      1      2
(PID.TID 0000.0001) EXF_SET_FLD:   first, changed, fac:   F   F    0.48907103825136611
(PID.TID 0000.0001) EXF_SET_FLD: processing field "swdown",  file: fsh.labsea1979
(PID.TID 0000.0001) EXF_SET_FLD:   myIter, count0, count1:         8      1      2
(PID.TID 0000.0001) EXF_SET_FLD:   first, changed, fac:   F   F    0.48907103825136611
(PID.TID 0000.0001) EXF_SET_FLD: processing field "lwdown",  file: flo.labsea1979
(PID.TID 0000.0001) EXF_SET_FLD:   myIter, count0, count1:         8      1      2
(PID.TID 0000.0001) EXF_SET_FLD:   first, changed, fac:   F   F    0.48907103825136611
DEBUG_STATS_RL: Uice pre  iter (SEAICE_LSR  1)  min= -1.95687208100102E-02
DEBUG_STATS_RL: Uice pre  iter (SEAICE_LSR  1)  max=  2.56695252608154E-01
DEBUG_STATS_RL: Uice pre  iter (SEAICE_LSR  1) mean=  6.10102626008752E-02
DEBUG_STATS_RL: Uice pre  iter (SEAICE_LSR  1) S.D.=  7.26515133443026E-02
DEBUG_STATS_RL: Vice pre  iter (SEAICE_LSR  1)  min= -1.74351841639993E-01
DEBUG_STATS_RL: Vice pre  iter (SEAICE_LSR  1)  max=  6.17815719868620E-02
DEBUG_STATS_RL: Vice pre  iter (SEAICE_LSR  1) mean= -5.34332922103127E-02
DEBUG_STATS_RL: Vice pre  iter (SEAICE_LSR  1) S.D.=  5.91879685811095E-02
DEBUG_STATS_RL: Uice pre  iter (SEAICE_LSR  2)  min= -2.10631196463131E-02
DEBUG_STATS_RL: Uice pre  iter (SEAICE_LSR  2)  max=  2.47741110498678E-01
DEBUG_STATS_RL: Uice pre  iter (SEAICE_LSR  2) mean=  5.58563099525574E-02
DEBUG_STATS_RL: Uice pre  iter (SEAICE_LSR  2) S.D.=  6.83562873807025E-02
DEBUG_STATS_RL: Vice pre  iter (SEAICE_LSR  2)  min= -1.71270231909308E-01
DEBUG_STATS_RL: Vice pre  iter (SEAICE_LSR  2)  max=  5.00408736690829E-02
DEBUG_STATS_RL: Vice pre  iter (SEAICE_LSR  2) mean= -5.35471708937630E-02
DEBUG_STATS_RL: Vice pre  iter (SEAICE_LSR  2) S.D.=  5.75117440524867E-02
DEBUG_STATS_RL:                EtaN (DYNAMICS)  min= -1.16069768363258E-01
DEBUG_STATS_RL:                EtaN (DYNAMICS)  max=  3.26639972250553E-01
DEBUG_STATS_RL:                EtaN (DYNAMICS) mean= -4.23481440025525E-03
DEBUG_STATS_RL:                EtaN (DYNAMICS) S.D.=  6.63305979494085E-02
DEBUG_STATS_RL:                Uvel (DYNAMICS)  min= -4.34802359621465E-02
DEBUG_STATS_RL:                Uvel (DYNAMICS)  max=  9.99752242998808E-02
DEBUG_STATS_RL:                Uvel (DYNAMICS) mean=  3.48264152589957E-03
DEBUG_STATS_RL:                Uvel (DYNAMICS) S.D.=  1.35343125506116E-02
DEBUG_STATS_RL:                Vvel (DYNAMICS)  min= -1.33439207289254E-01
DEBUG_STATS_RL:                Vvel (DYNAMICS)  max=  5.60260700766945E-02
DEBUG_STATS_RL:                Vvel (DYNAMICS) mean= -4.02696574872961E-03
DEBUG_STATS_RL:                Vvel (DYNAMICS) S.D.=  1.80273334212797E-02
DEBUG_STATS_RL:                Wvel (DYNAMICS)  min= -2.73348162229354E-04
DEBUG_STATS_RL:                Wvel (DYNAMICS)  max=  3.13596923283671E-04
DEBUG_STATS_RL:                Wvel (DYNAMICS) mean=  4.73709411313520E-08
DEBUG_STATS_RL:                Wvel (DYNAMICS) S.D.=  2.82661454219204E-05
DEBUG_STATS_RL:               Theta (DYNAMICS)  min= -1.95943609422387E+00
DEBUG_STATS_RL:               Theta (DYNAMICS)  max=  1.32225113409295E+01
DEBUG_STATS_RL:               Theta (DYNAMICS) mean=  2.41480286619418E+00
DEBUG_STATS_RL:               Theta (DYNAMICS) S.D.=  2.57398860030337E+00
DEBUG_STATS_RL:                Salt (DYNAMICS)  min=  2.76387468555707E+01
DEBUG_STATS_RL:                Salt (DYNAMICS)  max=  3.54510358217953E+01
DEBUG_STATS_RL:                Salt (DYNAMICS) mean=  3.39367601804946E+01
DEBUG_STATS_RL:                Salt (DYNAMICS) S.D.=  1.15334890349729E+00
DEBUG_STATS_RL:                  Gu (DYNAMICS)  min= -5.98368153074020E-02
DEBUG_STATS_RL:                  Gu (DYNAMICS)  max=  9.68873121299251E-02
DEBUG_STATS_RL:                  Gu (DYNAMICS) mean=  1.30194972947503E-03
DEBUG_STATS_RL:                  Gu (DYNAMICS) S.D.=  1.61566615235326E-02
DEBUG_STATS_RL:                  Gv (DYNAMICS)  min= -1.36271217267994E-01
DEBUG_STATS_RL:                  Gv (DYNAMICS)  max=  3.83573237348583E-02
DEBUG_STATS_RL:                  Gv (DYNAMICS) mean= -7.71950831958569E-03
DEBUG_STATS_RL:                  Gv (DYNAMICS) S.D.=  1.77533563667874E-02
DEBUG_STATS_RL:               GuNm1 (DYNAMICS)  min= -3.40955168137046E-07
DEBUG_STATS_RL:               GuNm1 (DYNAMICS)  max=  1.82641400821284E-07
DEBUG_STATS_RL:               GuNm1 (DYNAMICS) mean= -2.79196714442664E-09
DEBUG_STATS_RL:               GuNm1 (DYNAMICS) S.D.=  4.07453533304239E-08
DEBUG_STATS_RL:               GvNm1 (DYNAMICS)  min= -2.14559263714299E-07
DEBUG_STATS_RL:               GvNm1 (DYNAMICS)  max=  1.94148824775153E-07
DEBUG_STATS_RL:               GvNm1 (DYNAMICS) mean= -4.04169206802268E-10
DEBUG_STATS_RL:               GvNm1 (DYNAMICS) S.D.=  4.19222729579498E-08
DEBUG_STATS_RL:               GtNm1 (DYNAMICS)  min=  0.00000000000000E+00
DEBUG_STATS_RL:               GtNm1 (DYNAMICS)  max=  0.00000000000000E+00
DEBUG_STATS_RL:               GtNm1 (DYNAMICS) mean=  0.00000000000000E+00
DEBUG_STATS_RL:               GtNm1 (DYNAMICS) S.D.=  0.00000000000000E+00
DEBUG_STATS_RL:               GsNm1 (DYNAMICS)  min=  0.00000000000000E+00
DEBUG_STATS_RL:               GsNm1 (DYNAMICS)  max=  0.00000000000000E+00
DEBUG_STATS_RL:               GsNm1 (DYNAMICS) mean=  0.00000000000000E+00
DEBUG_STATS_RL:               GsNm1 (DYNAMICS) S.D.=  0.00000000000000E+00
DEBUG_STATS_RL:    cg2d_b (SOLVE_FOR_PRESSURE)  min= -7.29975929937793E+03
DEBUG_STATS_RL:    cg2d_b (SOLVE_FOR_PRESSURE)  max=  2.19478299507054E+03
DEBUG_STATS_RL:    cg2d_b (SOLVE_FOR_PRESSURE) mean= -3.96767063648440E-13
DEBUG_STATS_RL:    cg2d_b (SOLVE_FOR_PRESSURE) S.D.=  8.94146290227710E+02
 cg2d: Sum(rhs),rhsMax =  -6.92501611609941E-15  1.17489186776824E+00
DEBUG_STATS_RL:    cg2d_x (SOLVE_FOR_PRESSURE)  min= -1.08771127617308E+00
DEBUG_STATS_RL:    cg2d_x (SOLVE_FOR_PRESSURE)  max=  3.12128519797376E+00
DEBUG_STATS_RL:    cg2d_x (SOLVE_FOR_PRESSURE) mean= -4.19588396852395E-02
DEBUG_STATS_RL:    cg2d_x (SOLVE_FOR_PRESSURE) S.D.=  6.20262122262901E-01
DEBUG_STATS_RL:          Uvel (THERMODYNAMICS)  min= -5.12375198242059E-02
DEBUG_STATS_RL:          Uvel (THERMODYNAMICS)  max=  8.84896388076339E-02
DEBUG_STATS_RL:          Uvel (THERMODYNAMICS) mean=  2.55769138538291E-03
DEBUG_STATS_RL:          Uvel (THERMODYNAMICS) S.D.=  1.29064693910456E-02
DEBUG_STATS_RL:          Vvel (THERMODYNAMICS)  min= -1.29344604199479E-01
DEBUG_STATS_RL:          Vvel (THERMODYNAMICS)  max=  4.58633296186249E-02
DEBUG_STATS_RL:          Vvel (THERMODYNAMICS) mean= -4.14107843006319E-03
DEBUG_STATS_RL:          Vvel (THERMODYNAMICS) S.D.=  1.66082836245794E-02
DEBUG_STATS_RL:          Wvel (THERMODYNAMICS)  min= -2.60848991809587E-04
DEBUG_STATS_RL:          Wvel (THERMODYNAMICS)  max=  2.85731299794369E-04
DEBUG_STATS_RL:          Wvel (THERMODYNAMICS) mean=  1.36793666178293E-07
DEBUG_STATS_RL:          Wvel (THERMODYNAMICS) S.D.=  2.70580054557619E-05
DEBUG_STATS_RL:         Theta (THERMODYNAMICS)  min= -1.95932886747261E+00
DEBUG_STATS_RL:         Theta (THERMODYNAMICS)  max=  1.32010303660582E+01
DEBUG_STATS_RL:         Theta (THERMODYNAMICS) mean=  2.41452315045422E+00
DEBUG_STATS_RL:         Theta (THERMODYNAMICS) S.D.=  2.57350774067654E+00
DEBUG_STATS_RL:          Salt (THERMODYNAMICS)  min=  2.76435505129419E+01
DEBUG_STATS_RL:          Salt (THERMODYNAMICS)  max=  3.54508660670958E+01
DEBUG_STATS_RL:          Salt (THERMODYNAMICS) mean=  3.39367749828872E+01
DEBUG_STATS_RL:          Salt (THERMODYNAMICS) S.D.=  1.15309738582237E+00
DEBUG_STATS_RL:         GtNm1 (THERMODYNAMICS)  min=  0.00000000000000E+00
DEBUG_STATS_RL:         GtNm1 (THERMODYNAMICS)  max=  0.00000000000000E+00
DEBUG_STATS_RL:         GtNm1 (THERMODYNAMICS) mean=  0.00000000000000E+00
DEBUG_STATS_RL:         GtNm1 (THERMODYNAMICS) S.D.=  0.00000000000000E+00
DEBUG_STATS_RL:         GsNm1 (THERMODYNAMICS)  min=  0.00000000000000E+00
DEBUG_STATS_RL:         GsNm1 (THERMODYNAMICS)  max=  0.00000000000000E+00
DEBUG_STATS_RL:         GsNm1 (THERMODYNAMICS) mean=  0.00000000000000E+00
DEBUG_STATS_RL:         GsNm1 (THERMODYNAMICS) S.D.=  0.00000000000000E+00
(PID.TID 0000.0001) Did not write pickup because writePickupAtEnd = FALSE
(PID.TID 0000.0001)  MDS_WRITE_FIELD: it,rec,kS,kL,kH=       1     5   1   1   1 file=m_sst_step.0000000001
(PID.TID 0000.0001) gencost # 03
(PID.TID 0000.0001)  MDS_READ_FIELD: opening global file: sigma_sst.bin
(PID.TID 0000.0001)  MDS_READ_FIELD: opening global file: m_sst_step.0000000001.data
(PID.TID 0000.0001)  MDS_READ_FIELD: opening global file: labsea_SST_fields_t5
(PID.TID 0000.0001)  MDS_WRITE_FIELD: it,rec,kS,kL,kH=       1     1   1   1   1 file=misfit_sst
(PID.TID 0000.0001)  MDS_READ_FIELD: opening global file: sigma_sst.bin
(PID.TID 0000.0001)  MDS_READ_FIELD: opening global file: m_sst_step.0000000001.data
(PID.TID 0000.0001)  MDS_READ_FIELD: opening global file: labsea_SST_fields_t5
(PID.TID 0000.0001)  MDS_WRITE_FIELD: it,rec,kS,kL,kH=       1     2   1   1   1 file=misfit_sst
(PID.TID 0000.0001)  MDS_READ_FIELD: opening global file: sigma_sst.bin
(PID.TID 0000.0001)  MDS_READ_FIELD: opening global file: m_sst_step.0000000001.data
(PID.TID 0000.0001)  MDS_READ_FIELD: opening global file: labsea_SST_fields_t5
(PID.TID 0000.0001)  MDS_WRITE_FIELD: it,rec,kS,kL,kH=       1     3   1   1   1 file=misfit_sst
(PID.TID 0000.0001)  MDS_READ_FIELD: opening global file: sigma_sst.bin
(PID.TID 0000.0001)  MDS_READ_FIELD: opening global file: m_sst_step.0000000001.data
(PID.TID 0000.0001)  MDS_READ_FIELD: opening global file: labsea_SST_fields_t5
(PID.TID 0000.0001)  MDS_WRITE_FIELD: it,rec,kS,kL,kH=       1     4   1   1   1 file=misfit_sst
(PID.TID 0000.0001)  MDS_READ_FIELD: opening global file: sigma_sst.bin
(PID.TID 0000.0001)  MDS_READ_FIELD: opening global file: m_sst_step.0000000001.data
(PID.TID 0000.0001)  MDS_READ_FIELD: opening global file: labsea_SST_fields_t5
(PID.TID 0000.0001)  MDS_WRITE_FIELD: it,rec,kS,kL,kH=       1     5   1   1   1 file=misfit_sst
(PID.TID 0000.0001)  MDS_READ_FIELD: opening global file: xx_atemp.0000000001.data
(PID.TID 0000.0001)  MDS_READ_FIELD: opening global file: xx_atemp.0000000001.data
(PID.TID 0000.0001)  MDS_READ_FIELD: opening global file: xx_atemp.0000000001.data
(PID.TID 0000.0001)  MDS_READ_FIELD: opening global file: xx_atemp.0000000001.data
(PID.TID 0000.0001)  MDS_READ_FIELD: opening global file: xx_atemp.0000000001.data
(PID.TID 0000.0001)  MDS_READ_FIELD: opening global file: xx_atemp.0000000001.data
(PID.TID 0000.0001)  MDS_READ_FIELD: opening global file: xx_atemp.0000000001.data
(PID.TID 0000.0001)  MDS_READ_FIELD: opening global file: xx_atemp.0000000001.data
(PID.TID 0000.0001)  MDS_READ_FIELD: opening global file: xx_atemp.0000000001.data
(PID.TID 0000.0001)  MDS_READ_FIELD: opening global file: xx_atemp.0000000001.data
(PID.TID 0000.0001)  MDS_READ_FIELD: opening global file: xx_atemp.0000000001.data
 --> f_ice     = 0.000000000000000D+00
 --> f_smrarea = 0.000000000000000D+00
 --> f_smrarea = 0.000000000000000D+00
 --> f_smrarea = 0.000000000000000D+00
(PID.TID 0000.0001)  --> f_gencost = 0.527453128215446D+04 3
(PID.TID 0000.0001)  --> f_gentim2d = 0.243374980010000D+03 1
(PID.TID 0000.0001)  --> fc               = 0.527453128215446D+04
(PID.TID 0000.0001)  cost_Final: final cost function =  0.527453128215446D+04
(PID.TID 0000.0001) 
(PID.TID 0000.0001)              cost function evaluation finished.
(PID.TID 0000.0001) 
(PID.TID 0000.0001)   early fc =  0.000000000000000D+00
(PID.TID 0000.0001)   local fc =  0.527453128215446D+04
(PID.TID 0000.0001)  global fc =  0.527453128215446D+04
(PID.TID 0000.0001) grdchk perturb(-)fc: fcpertminus =  5.27453128215446E+03
(PID.TID 0000.0001)  MDS_READ_FIELD: opening global file: xx_atemp.0000000001.data
(PID.TID 0000.0001)  MDS_WRITE_FIELD: it,rec,kS,kL,kH=       1     1   1   1   1 file=xx_atemp.0000000001
grad-res -------------------------------
 grad-res     0    5   10    8    1    1    1    1   5.27453128215E+03  5.27453128215E+03  5.27453128215E+03
 grad-res     0    5    5   79    0    1    1    1   0.00000000000E+00  0.00000000000E+00  0.00000000000E+00
(PID.TID 0000.0001)  ADM  ref_cost_function      =  5.27453128215446E+03
(PID.TID 0000.0001)  ADM  adjoint_gradient       =  0.00000000000000E+00
(PID.TID 0000.0001)  ADM  finite-diff_grad       =  0.00000000000000E+00
(PID.TID 0000.0001) ====== End of gradient-check number   5 (ierr=  0) =======
(PID.TID 0000.0001) 
(PID.TID 0000.0001) // =======================================================
(PID.TID 0000.0001) // Gradient check results  >>> START <<<
(PID.TID 0000.0001) // =======================================================
(PID.TID 0000.0001) 
(PID.TID 0000.0001)  EPS =   1.000000E-04
(PID.TID 0000.0001) 
(PID.TID 0000.0001) grdchk output h.p:  Id Itile Jtile LAYER   bi   bj   X(Id)           X(Id)+/-EPS
(PID.TID 0000.0001) grdchk output h.c:  Id  FC                   FC1                  FC2
(PID.TID 0000.0001) grdchk output h.g:  Id     FC1-FC2/(2*EPS)      ADJ GRAD(FC)         1-FDGRD/ADGRD
(PID.TID 0000.0001) 
(PID.TID 0000.0001) grdchk output (p):   1     6     8     1    1    1   1.000000000E-01  9.990000000E-02
(PID.TID 0000.0001) grdchk output (c):   1  5.2745312821545E+03  5.2745312821545E+03  5.2745312821545E+03
(PID.TID 0000.0001) grdchk output (g):   1     0.0000000000000E+00  0.0000000000000E+00  0.0000000000000E+00
(PID.TID 0000.0001) 
(PID.TID 0000.0001) grdchk output (p):   2     7     8     1    1    1   1.000000000E-01  9.990000000E-02
(PID.TID 0000.0001) grdchk output (c):   2  5.2745312821545E+03  5.2745312821545E+03  5.2745312821545E+03
(PID.TID 0000.0001) grdchk output (g):   2     0.0000000000000E+00  0.0000000000000E+00  0.0000000000000E+00
(PID.TID 0000.0001) 
(PID.TID 0000.0001) grdchk output (p):   3     8     8     1    1    1   1.000000000E-01  9.990000000E-02
(PID.TID 0000.0001) grdchk output (c):   3  5.2745312821545E+03  5.2745312821545E+03  5.2745312821545E+03
(PID.TID 0000.0001) grdchk output (g):   3     0.0000000000000E+00  0.0000000000000E+00  0.0000000000000E+00
(PID.TID 0000.0001) 
(PID.TID 0000.0001) grdchk output (p):   4     9     8     1    1    1   1.000000000E-01  9.990000000E-02
(PID.TID 0000.0001) grdchk output (c):   4  5.2745312821545E+03  5.2745312821545E+03  5.2745312821545E+03
(PID.TID 0000.0001) grdchk output (g):   4     0.0000000000000E+00  0.0000000000000E+00  0.0000000000000E+00
(PID.TID 0000.0001) 
(PID.TID 0000.0001) grdchk output (p):   5    10     8     1    1    1   1.000000000E-01  9.990000000E-02
(PID.TID 0000.0001) grdchk output (c):   5  5.2745312821545E+03  5.2745312821545E+03  5.2745312821545E+03
(PID.TID 0000.0001) grdchk output (g):   5     0.0000000000000E+00  0.0000000000000E+00  0.0000000000000E+00
(PID.TID 0000.0001) 
(PID.TID 0000.0001) grdchk  summary  :  RMS of    5 ratios =  0.0000000000000E+00
(PID.TID 0000.0001) 
(PID.TID 0000.0001) // =======================================================
(PID.TID 0000.0001) // Gradient check results  >>> END <<<
(PID.TID 0000.0001) // =======================================================
(PID.TID 0000.0001) 
(PID.TID 0000.0001)   Seconds in section "ALL                    [THE_MODEL_MAIN]":
(PID.TID 0000.0001)           User time:   2.8218340342864394
(PID.TID 0000.0001)         System time:  0.39378399308770895
(PID.TID 0000.0001)     Wall clock time:   11.745467185974121
(PID.TID 0000.0001)          No. starts:           1
(PID.TID 0000.0001)           No. stops:           1
(PID.TID 0000.0001)   Seconds in section "INITIALISE_FIXED       [THE_MODEL_MAIN]":
(PID.TID 0000.0001)           User time:   8.1634000875055790E-002
(PID.TID 0000.0001)         System time:   3.1592001207172871E-002
(PID.TID 0000.0001)     Wall clock time:  0.66964006423950195
(PID.TID 0000.0001)          No. starts:           1
(PID.TID 0000.0001)           No. stops:           1
(PID.TID 0000.0001)   Seconds in section "ADTHE_MAIN_LOOP          [ADJOINT RUN]":
(PID.TID 0000.0001)           User time:   1.0032560378313065
(PID.TID 0000.0001)         System time:  0.17529700696468353
(PID.TID 0000.0001)     Wall clock time:   4.5298099517822266
(PID.TID 0000.0001)          No. starts:           1
(PID.TID 0000.0001)           No. stops:           1
(PID.TID 0000.0001)   Seconds in section "FORWARD_STEP        [MAIN_DO_LOOP]":
(PID.TID 0000.0001)           User time:   1.7467648386955261
(PID.TID 0000.0001)         System time:   6.5664045512676239E-002
(PID.TID 0000.0001)     Wall clock time:   3.4588713645935059
(PID.TID 0000.0001)          No. starts:          48
(PID.TID 0000.0001)           No. stops:          48
(PID.TID 0000.0001)   Seconds in section "DO_STATEVARS_DIAGS  [FORWARD_STEP]":
(PID.TID 0000.0001)           User time:   1.0600090026855469E-003
(PID.TID 0000.0001)         System time:   4.3004751205444336E-005
(PID.TID 0000.0001)     Wall clock time:   1.1055469512939453E-003
(PID.TID 0000.0001)          No. starts:          12
(PID.TID 0000.0001)           No. stops:          12
(PID.TID 0000.0001)   Seconds in section "LOAD_FIELDS_DRIVER  [FORWARD_STEP]":
(PID.TID 0000.0001)           User time:   7.3085412383079529E-002
(PID.TID 0000.0001)         System time:   3.9237029850482941E-002
(PID.TID 0000.0001)     Wall clock time:  0.82152509689331055
(PID.TID 0000.0001)          No. starts:          48
(PID.TID 0000.0001)           No. stops:          48
(PID.TID 0000.0001)   Seconds in section "EXF_GETFORCING     [LOAD_FLDS_DRIVER]":
(PID.TID 0000.0001)           User time:   5.1988199353218079E-002
(PID.TID 0000.0001)         System time:   3.6610931158065796E-002
(PID.TID 0000.0001)     Wall clock time:  0.52993583679199219
(PID.TID 0000.0001)          No. starts:          48
(PID.TID 0000.0001)           No. stops:          48
(PID.TID 0000.0001)   Seconds in section "EXTERNAL_FLDS_LOAD [LOAD_FLDS_DRIVER]":
(PID.TID 0000.0001)           User time:   7.5410306453704834E-004
(PID.TID 0000.0001)         System time:   5.7026743888854980E-005
(PID.TID 0000.0001)     Wall clock time:   7.8248977661132812E-004
(PID.TID 0000.0001)          No. starts:          48
(PID.TID 0000.0001)           No. stops:          48
(PID.TID 0000.0001)   Seconds in section "CTRL_MAP_FORCING  [FORWARD_STEP]":
(PID.TID 0000.0001)           User time:   3.4653693437576294E-003
(PID.TID 0000.0001)         System time:   2.5002658367156982E-004
(PID.TID 0000.0001)     Wall clock time:   3.7302970886230469E-003
(PID.TID 0000.0001)          No. starts:          48
(PID.TID 0000.0001)           No. stops:          48
(PID.TID 0000.0001)   Seconds in section "DO_ATMOSPHERIC_PHYS [FORWARD_STEP]":
(PID.TID 0000.0001)           User time:   1.8294453620910645E-003
(PID.TID 0000.0001)         System time:   1.6999989748001099E-004
(PID.TID 0000.0001)     Wall clock time:   2.0065307617187500E-003
(PID.TID 0000.0001)          No. starts:          48
(PID.TID 0000.0001)           No. stops:          48
(PID.TID 0000.0001)   Seconds in section "DO_OCEANIC_PHYS     [FORWARD_STEP]":
(PID.TID 0000.0001)           User time:  0.76791775226593018
(PID.TID 0000.0001)         System time:   6.6390782594680786E-003
(PID.TID 0000.0001)     Wall clock time:  0.79353666305541992
(PID.TID 0000.0001)          No. starts:          48
(PID.TID 0000.0001)           No. stops:          48
(PID.TID 0000.0001)   Seconds in section "SEAICE_MODEL    [DO_OCEANIC_PHYS]":
(PID.TID 0000.0001)           User time:   9.2916622757911682E-002
(PID.TID 0000.0001)         System time:   1.0720267891883850E-003
(PID.TID 0000.0001)     Wall clock time:  0.10344338417053223
(PID.TID 0000.0001)          No. starts:          48
(PID.TID 0000.0001)           No. stops:          48
(PID.TID 0000.0001)   Seconds in section "SEAICE_DYNSOLVER   [SEAICE_MODEL]":
(PID.TID 0000.0001)           User time:   6.5987765789031982E-002
(PID.TID 0000.0001)         System time:   7.5902044773101807E-004
(PID.TID 0000.0001)     Wall clock time:   7.4483156204223633E-002
(PID.TID 0000.0001)          No. starts:          48
(PID.TID 0000.0001)           No. stops:          48
(PID.TID 0000.0001)   Seconds in section "KPP_CALC [DO_OCEANIC_PHYS]":
(PID.TID 0000.0001)           User time:  0.44524653255939484
(PID.TID 0000.0001)         System time:   4.9920007586479187E-003
(PID.TID 0000.0001)     Wall clock time:  0.45424437522888184
(PID.TID 0000.0001)          No. starts:          48
(PID.TID 0000.0001)           No. stops:          48
(PID.TID 0000.0001)   Seconds in section "DYNAMICS            [FORWARD_STEP]":
(PID.TID 0000.0001)           User time:  0.24776196479797363
(PID.TID 0000.0001)         System time:   0.0000000000000000
(PID.TID 0000.0001)     Wall clock time:  0.26480913162231445
(PID.TID 0000.0001)          No. starts:          48
(PID.TID 0000.0001)           No. stops:          48
(PID.TID 0000.0001)   Seconds in section "SOLVE_FOR_PRESSURE  [FORWARD_STEP]":
(PID.TID 0000.0001)           User time:   2.8852432966232300E-002
(PID.TID 0000.0001)         System time:   5.8978796005249023E-005
(PID.TID 0000.0001)     Wall clock time:   3.0877828598022461E-002
(PID.TID 0000.0001)          No. starts:          48
(PID.TID 0000.0001)           No. stops:          48
(PID.TID 0000.0001)   Seconds in section "MOM_CORRECTION_STEP [FORWARD_STEP]":
(PID.TID 0000.0001)           User time:   5.5577903985977173E-003
(PID.TID 0000.0001)         System time:   1.5974044799804688E-005
(PID.TID 0000.0001)     Wall clock time:   5.5983066558837891E-003
(PID.TID 0000.0001)          No. starts:          48
(PID.TID 0000.0001)           No. stops:          48
(PID.TID 0000.0001)   Seconds in section "INTEGR_CONTINUITY   [FORWARD_STEP]":
(PID.TID 0000.0001)           User time:   4.1652768850326538E-003
(PID.TID 0000.0001)         System time:   1.1980533599853516E-005
(PID.TID 0000.0001)     Wall clock time:   4.2028427124023438E-003
(PID.TID 0000.0001)          No. starts:          48
(PID.TID 0000.0001)           No. stops:          48
(PID.TID 0000.0001)   Seconds in section "BLOCKING_EXCHANGES  [FORWARD_STEP]":
(PID.TID 0000.0001)           User time:   1.3324379920959473E-002
(PID.TID 0000.0001)         System time:   3.7997961044311523E-005
(PID.TID 0000.0001)     Wall clock time:   1.3403177261352539E-002
(PID.TID 0000.0001)          No. starts:          96
(PID.TID 0000.0001)           No. stops:          96
(PID.TID 0000.0001)   Seconds in section "THERMODYNAMICS      [FORWARD_STEP]":
(PID.TID 0000.0001)           User time:  0.26676607131958008
(PID.TID 0000.0001)         System time:   5.0067901611328125E-006
(PID.TID 0000.0001)     Wall clock time:  0.27883076667785645
(PID.TID 0000.0001)          No. starts:          48
(PID.TID 0000.0001)           No. stops:          48
(PID.TID 0000.0001)   Seconds in section "TRC_CORRECTION_STEP [FORWARD_STEP]":
(PID.TID 0000.0001)           User time:   8.3662569522857666E-004
(PID.TID 0000.0001)         System time:   3.0100345611572266E-006
(PID.TID 0000.0001)     Wall clock time:   8.3851814270019531E-004
(PID.TID 0000.0001)          No. starts:          48
(PID.TID 0000.0001)           No. stops:          48
(PID.TID 0000.0001)   Seconds in section "MONITOR             [FORWARD_STEP]":
(PID.TID 0000.0001)           User time:   1.0168626904487610E-002
(PID.TID 0000.0001)         System time:   1.9967555999755859E-006
(PID.TID 0000.0001)     Wall clock time:   1.6313552856445312E-002
(PID.TID 0000.0001)          No. starts:          48
(PID.TID 0000.0001)           No. stops:          48
(PID.TID 0000.0001)   Seconds in section "COST_TILE           [FORWARD_STEP]":
(PID.TID 0000.0001)           User time:   8.0326199531555176E-004
(PID.TID 0000.0001)         System time:   1.9967555999755859E-006
(PID.TID 0000.0001)     Wall clock time:   7.8701972961425781E-004
(PID.TID 0000.0001)          No. starts:          48
(PID.TID 0000.0001)           No. stops:          48
(PID.TID 0000.0001)   Seconds in section "DO_THE_MODEL_IO     [FORWARD_STEP]":
(PID.TID 0000.0001)           User time:   3.9703428745269775E-002
(PID.TID 0000.0001)         System time:   8.8209956884384155E-003
(PID.TID 0000.0001)     Wall clock time:  0.58063387870788574
(PID.TID 0000.0001)          No. starts:          48
(PID.TID 0000.0001)           No. stops:          48
(PID.TID 0000.0001)   Seconds in section "DO_WRITE_PICKUP     [FORWARD_STEP]":
(PID.TID 0000.0001)           User time:   1.6989827156066895E-002
(PID.TID 0000.0001)         System time:   1.0103002190589905E-002
(PID.TID 0000.0001)     Wall clock time:  0.37624001502990723
(PID.TID 0000.0001)          No. starts:          48
(PID.TID 0000.0001)           No. stops:          48
(PID.TID 0000.0001)   Seconds in section "COST_GENCOST_ALL    [ECCO SPIN-DOWN]":
(PID.TID 0000.0001)           User time:   6.2623947858810425E-002
(PID.TID 0000.0001)         System time:   1.7197981476783752E-002
(PID.TID 0000.0001)     Wall clock time:  0.92676782608032227
(PID.TID 0000.0001)          No. starts:          11
(PID.TID 0000.0001)           No. stops:          11
(PID.TID 0000.0001)   Seconds in section "CTRL_COST_DRIVER [ECCO SPIN-DOWN]":
(PID.TID 0000.0001)           User time:   3.3822894096374512E-002
(PID.TID 0000.0001)         System time:   2.3880228400230408E-003
(PID.TID 0000.0001)     Wall clock time:  0.47042036056518555
(PID.TID 0000.0001)          No. starts:          11
(PID.TID 0000.0001)           No. stops:          11
(PID.TID 0000.0001)   Seconds in section "I/O (WRITE)        [ADJOINT LOOP]":
(PID.TID 0000.0001)           User time:   3.5254240036010742E-002
(PID.TID 0000.0001)         System time:   1.4499008655548096E-002
(PID.TID 0000.0001)     Wall clock time:  0.90677499771118164
(PID.TID 0000.0001)          No. starts:          25
(PID.TID 0000.0001)           No. stops:          25
(PID.TID 0000.0001)   Seconds in section "GRDCHK_MAIN         [THE_MODEL_MAIN]":
(PID.TID 0000.0001)           User time:   1.7368400096893311
(PID.TID 0000.0001)         System time:  0.18685199320316315
(PID.TID 0000.0001)     Wall clock time:   6.5440800189971924
(PID.TID 0000.0001)          No. starts:           1
(PID.TID 0000.0001)           No. stops:           1
(PID.TID 0000.0001)   Seconds in section "INITIALISE_VARIA    [THE_MAIN_LOOP]":
(PID.TID 0000.0001)           User time:  0.18705224990844727
(PID.TID 0000.0001)         System time:  0.12326000630855560
(PID.TID 0000.0001)     Wall clock time:   2.5697944164276123
(PID.TID 0000.0001)          No. starts:          10
(PID.TID 0000.0001)           No. stops:          10
(PID.TID 0000.0001)   Seconds in section "MAIN LOOP           [THE_MAIN_LOOP]":
(PID.TID 0000.0001)           User time:   1.5388002395629883
(PID.TID 0000.0001)         System time:   5.1786065101623535E-002
(PID.TID 0000.0001)     Wall clock time:   3.7228426933288574
(PID.TID 0000.0001)          No. starts:          10
(PID.TID 0000.0001)           No. stops:          10
(PID.TID 0000.0001)   Seconds in section "COST_AVERAGESFIELDS [MAIN_DO_LOOP]":
(PID.TID 0000.0001)           User time:   4.7280430793762207E-002
(PID.TID 0000.0001)         System time:   1.5100240707397461E-003
(PID.TID 0000.0001)     Wall clock time:  0.28280210494995117
(PID.TID 0000.0001)          No. starts:          40
(PID.TID 0000.0001)           No. stops:          40
(PID.TID 0000.0001)   Seconds in section "MAIN_DO_LOOP        [THE_MAIN_LOOP]":
(PID.TID 0000.0001)           User time:   1.3854780197143555
(PID.TID 0000.0001)         System time:   3.0665069818496704E-002
(PID.TID 0000.0001)     Wall clock time:   2.0057327747344971
(PID.TID 0000.0001)          No. starts:          40
(PID.TID 0000.0001)           No. stops:          40
(PID.TID 0000.0001)   Seconds in section "COST_AVERAGESFIELDS [THE_MAIN_LOOP]":
(PID.TID 0000.0001)           User time:   9.6668004989624023E-003
(PID.TID 0000.0001)         System time:   1.1509954929351807E-003
(PID.TID 0000.0001)     Wall clock time:   7.0232391357421875E-002
(PID.TID 0000.0001)          No. starts:          10
(PID.TID 0000.0001)           No. stops:          10
(PID.TID 0000.0001)   Seconds in section "ECCO_COST_DRIVER   [THE_MAIN_LOOP]":
(PID.TID 0000.0001)           User time:   8.7175250053405762E-002
(PID.TID 0000.0001)         System time:   1.7093017697334290E-002
(PID.TID 0000.0001)     Wall clock time:   1.2706239223480225
(PID.TID 0000.0001)          No. starts:          10
(PID.TID 0000.0001)           No. stops:          10
(PID.TID 0000.0001)   Seconds in section "COST_FINAL         [ADJOINT SPIN-DOWN]":
(PID.TID 0000.0001)           User time:   6.1650276184082031E-003
(PID.TID 0000.0001)         System time:   1.2179911136627197E-003
(PID.TID 0000.0001)     Wall clock time:   9.0353965759277344E-002
(PID.TID 0000.0001)          No. starts:          10
(PID.TID 0000.0001)           No. stops:          10
(PID.TID 0000.0001) // ======================================================
(PID.TID 0000.0001) // Tile <-> Tile communication statistics
(PID.TID 0000.0001) // ======================================================
(PID.TID 0000.0001) // o Tile number: 000001
(PID.TID 0000.0001) //         No. X exchanges =              0
(PID.TID 0000.0001) //            Max. X spins =              0
(PID.TID 0000.0001) //            Min. X spins =     1000000000
(PID.TID 0000.0001) //          Total. X spins =              0
(PID.TID 0000.0001) //            Avg. X spins =       0.00E+00
(PID.TID 0000.0001) //         No. Y exchanges =              0
(PID.TID 0000.0001) //            Max. Y spins =              0
(PID.TID 0000.0001) //            Min. Y spins =     1000000000
(PID.TID 0000.0001) //          Total. Y spins =              0
(PID.TID 0000.0001) //            Avg. Y spins =       0.00E+00
(PID.TID 0000.0001) // o Thread number: 000001
(PID.TID 0000.0001) //            No. barriers =          48570
(PID.TID 0000.0001) //      Max. barrier spins =              1
(PID.TID 0000.0001) //      Min. barrier spins =              1
(PID.TID 0000.0001) //     Total barrier spins =          48570
(PID.TID 0000.0001) //      Avg. barrier spins =       1.00E+00
PROGRAM MAIN: Execution ended Normally
